# Output Control file created on 2021-05-25 by ModelMuse version 4.3.0.0.
BEGIN OPTIONS
  BUDGET FILEOUT 'hagfors.cbc'
  HEAD FILEOUT 'hagfors.bhd'
END OPTIONS

BEGIN PERIOD      1
  SAVE HEAD ALL
  PRINT BUDGET ALL
  SAVE BUDGET ALL
END PERIOD 

