# SFR: MODFLOW-6 Stream Flow Routing package file created on 2021-05-25 by ModelMuse version 4.3.0.0.
BEGIN OPTIONS
    PRINT_INPUT
    PRINT_STAGE
    PRINT_FLOWS
    BOUNDNAMES
    SAVE_FLOWS
    STAGE FILEOUT hagfors.stage
    BUDGET FILEOUT hagfors.sfr_budget
    MAXIMUM_ITERATIONS   100
    MAXIMUM_DEPTH_CHANGE  1.000000000000E-005 
    UNIT_CONVERSION  8.640000000000E+004 
END OPTIONS

BEGIN DIMENSIONS
    NREACHES    698
END DIMENSIONS

BEGIN PACKAGEDATA
# <rno>   <cellid>        <rlen>                <rwid>                <rgrd>                <rtp>                 <rbth>                <rhk>                 <man>                <ncon> <ustrf>                  <ndv> [<aux(naux)>] [<boundname>]
# defined by orbacken_sfr_1
     1     1   177   380  1.768877797576E+000   2.000000000000E+000   1.000000000000E-003   1.426419000000E+002   1.000000000000E+000   8.640000000000E+001   3.000000000000E-002      1  1.000000000000E+000      0 orbacken_sfr_1
     2     1   177   379  2.273217777386E+000   2.000000000000E+000   1.000000000000E-003   1.425888000000E+002   1.000000000000E+000   8.640000000000E+001   3.000000000000E-002      2  1.000000000000E+000      0 orbacken_sfr_1
     3     1   177   378  6.908704994405E-002   2.000000000000E+000   1.000000000000E-003   1.425533000000E+002   1.000000000000E+000   8.640000000000E+001   3.000000000000E-002      2  1.000000000000E+000      0 orbacken_sfr_1
     4     1   176   378  2.204130727442E+000   2.000000000000E+000   1.000000000000E-003   1.425138000000E+002   1.000000000000E+000   8.640000000000E+001   3.000000000000E-002      2  1.000000000000E+000      0 orbacken_sfr_1
     5     1   176   377  2.062961235539E+000   2.000000000000E+000   1.000000000000E-003   1.424699000000E+002   1.000000000000E+000   8.640000000000E+001   3.000000000000E-002      2  1.000000000000E+000      0 orbacken_sfr_1
     6     1   175   377  1.891041534034E-001   2.000000000000E+000   1.000000000000E-003   1.424590000000E+002   1.000000000000E+000   8.640000000000E+001   3.000000000000E-002      2  1.000000000000E+000      0 orbacken_sfr_1
     7     1   175   376  2.216808774653E+000   2.000000000000E+000   1.000000000000E-003   1.424527000000E+002   1.000000000000E+000   8.640000000000E+001   3.000000000000E-002      2  1.000000000000E+000      0 orbacken_sfr_1
     8     1   175   375  2.216808773850E+000   2.000000000000E+000   1.000000000000E-003   1.424855000000E+002   1.000000000000E+000   8.640000000000E+001   3.000000000000E-002      2  1.000000000000E+000      0 orbacken_sfr_1
     9     1   175   374  1.417954757643E-002   2.000000000000E+000   1.000000000000E-003   1.425074000000E+002   1.000000000000E+000   8.640000000000E+001   3.000000000000E-002      2  1.000000000000E+000      0 orbacken_sfr_1
    10     1   174   374  2.202629227077E+000   2.000000000000E+000   1.000000000000E-003   1.424942000000E+002   1.000000000000E+000   8.640000000000E+001   3.000000000000E-002      2  1.000000000000E+000      0 orbacken_sfr_1
    11     1   174   373  2.216808773850E+000   2.000000000000E+000   1.000000000000E-003   1.425658000000E+002   1.000000000000E+000   8.640000000000E+001   3.000000000000E-002      2  1.000000000000E+000      0 orbacken_sfr_1
    12     1   174   372  2.174632468758E-001   2.000000000000E+000   1.000000000000E-003   1.425661000000E+002   1.000000000000E+000   8.640000000000E+001   3.000000000000E-002      2  1.000000000000E+000      0 orbacken_sfr_1
    13     1   173   372  2.005867654850E+000   2.000000000000E+000   1.000000000000E-003   1.425510000000E+002   1.000000000000E+000   8.640000000000E+001   3.000000000000E-002      2  1.000000000000E+000      0 orbacken_sfr_1
    14     1   173   371  2.247522463769E+000   2.000000000000E+000   1.000000000000E-003   1.425318000000E+002   1.000000000000E+000   8.640000000000E+001   3.000000000000E-002      2  1.000000000000E+000      0 orbacken_sfr_1
    15     1   172   371  6.180337499812E-002   2.000000000000E+000   1.000000000000E-003   1.425208000000E+002   1.000000000000E+000   8.640000000000E+001   3.000000000000E-002      2  1.000000000000E+000      0 orbacken_sfr_1
    16     1   172   370  2.309325839698E+000   2.000000000000E+000   1.000000000000E-003   1.424938000000E+002   1.000000000000E+000   8.640000000000E+001   3.000000000000E-002      2  1.000000000000E+000      0 orbacken_sfr_1
    17     1   172   369  1.629261807634E+000   2.000000000000E+000   1.000000000000E-003   1.424544000000E+002   1.000000000000E+000   8.640000000000E+001   3.000000000000E-002      2  1.000000000000E+000      0 orbacken_sfr_1
    18     1   171   369  6.800640311335E-001   2.000000000000E+000   1.000000000000E-003   1.424415000000E+002   1.000000000000E+000   8.640000000000E+001   3.000000000000E-002      2  1.000000000000E+000      0 orbacken_sfr_1
    19     1   171   368  2.309325839698E+000   2.000000000000E+000   1.000000000000E-003   1.423638000000E+002   1.000000000000E+000   8.640000000000E+001   3.000000000000E-002      2  1.000000000000E+000      0 orbacken_sfr_1
    20     1   171   367  1.279785933870E+000   2.000000000000E+000   1.000000000000E-003   1.423441000000E+002   1.000000000000E+000   8.640000000000E+001   3.000000000000E-002      2  1.000000000000E+000      0 orbacken_sfr_1
    21     1   170   367  8.954860704093E-001   2.000000000000E+000   1.000000000000E-003   1.423944000000E+002   1.000000000000E+000   8.640000000000E+001   3.000000000000E-002      2  1.000000000000E+000      0 orbacken_sfr_1
    22     1   170   366  2.171531062087E+000   2.000000000000E+000   1.000000000000E-003   1.423817000000E+002   1.000000000000E+000   8.640000000000E+001   3.000000000000E-002      2  1.000000000000E+000      0 orbacken_sfr_1
    23     1   170   365  2.108885076595E+000   2.000000000000E+000   1.000000000000E-003   1.423585000000E+002   1.000000000000E+000   8.640000000000E+001   3.000000000000E-002      2  1.000000000000E+000      0 orbacken_sfr_1
    24     1   170   364  4.866811286077E-001   2.000000000000E+000   1.000000000000E-003   1.423660000000E+002   1.000000000000E+000   8.640000000000E+001   3.000000000000E-002      2  1.000000000000E+000      0 orbacken_sfr_1
    25     1   169   364  2.425372696455E+000   2.000000000000E+000   1.000000000000E-003   1.423946000000E+002   1.000000000000E+000   8.640000000000E+001   3.000000000000E-002      2  1.000000000000E+000      0 orbacken_sfr_1
    26     1   169   363  1.628815081992E-001   2.000000000000E+000   1.000000000000E-003   1.423769000000E+002   1.000000000000E+000   8.640000000000E+001   3.000000000000E-002      2  1.000000000000E+000      0 orbacken_sfr_1
    27     1   168   363  2.289797840358E+000   2.000000000000E+000   1.000000000000E-003   1.423930000000E+002   1.000000000000E+000   8.640000000000E+001   3.000000000000E-002      2  1.000000000000E+000      0 orbacken_sfr_1
    28     1   167   363  1.854934232089E+000   2.000000000000E+000   1.000000000000E-003   1.424157000000E+002   1.000000000000E+000   8.640000000000E+001   3.000000000000E-002      2  1.000000000000E+000      0 orbacken_sfr_1
    29     1   167   362  3.647200731200E-001   2.000000000000E+000   1.000000000000E-003   1.424224000000E+002   1.000000000000E+000   8.640000000000E+001   3.000000000000E-002      2  1.000000000000E+000      0 orbacken_sfr_1
    30     1   166   362  2.219654305209E+000   2.000000000000E+000   1.000000000000E-003   1.424302000000E+002   1.000000000000E+000   8.640000000000E+001   3.000000000000E-002      2  1.000000000000E+000      0 orbacken_sfr_1
    31     1   165   362  2.026752165752E+000   2.000000000000E+000   1.000000000000E-003   1.423708000000E+002   1.000000000000E+000   8.640000000000E+001   3.000000000000E-002      2  1.000000000000E+000      0 orbacken_sfr_1
    32     1   165   361  1.929021394576E-001   2.000000000000E+000   1.000000000000E-003   1.423697000000E+002   1.000000000000E+000   8.640000000000E+001   3.000000000000E-002      2  1.000000000000E+000      0 orbacken_sfr_1
    33     1   164   361  2.800818513907E+000   2.000000000000E+000   1.000000000000E-003   1.422623000000E+002   1.000000000000E+000   8.640000000000E+001   3.000000000000E-002      2  1.000000000000E+000      0 orbacken_sfr_1
    34     1   163   361  1.142545285919E-001   2.000000000000E+000   1.000000000000E-003   1.421923000000E+002   1.000000000000E+000   8.640000000000E+001   3.000000000000E-002      2  1.000000000000E+000      0 orbacken_sfr_1
    35     1   163   360  2.416195718887E+000   2.000000000000E+000   1.000000000000E-003   1.421683000000E+002   1.000000000000E+000   8.640000000000E+001   3.000000000000E-002      2  1.000000000000E+000      0 orbacken_sfr_1
    36     1   163   359  1.033971999213E+000   2.000000000000E+000   1.000000000000E-003   1.421960000000E+002   1.000000000000E+000   8.640000000000E+001   3.000000000000E-002      2  1.000000000000E+000      0 orbacken_sfr_1
    37     1   162   359  1.352341497381E+000   2.000000000000E+000   1.000000000000E-003   1.421613000000E+002   1.000000000000E+000   8.640000000000E+001   3.000000000000E-002      2  1.000000000000E+000      0 orbacken_sfr_1
    38     1   162   358  2.080327221133E+000   2.000000000000E+000   1.000000000000E-003   1.421793000000E+002   1.000000000000E+000   8.640000000000E+001   3.000000000000E-002      2  1.000000000000E+000      0 orbacken_sfr_1
    39     1   162   357  1.144892482055E-001   2.000000000000E+000   1.000000000000E-003   1.422148000000E+002   1.000000000000E+000   8.640000000000E+001   3.000000000000E-002      2  1.000000000000E+000      0 orbacken_sfr_1
    40     1   163   357  1.965837972671E+000   2.000000000000E+000   1.000000000000E-003   1.422479000000E+002   1.000000000000E+000   8.640000000000E+001   3.000000000000E-002      2  1.000000000000E+000      0 orbacken_sfr_1
    41     1   163   356  2.080327220876E+000   2.000000000000E+000   1.000000000000E-003   1.422639000000E+002   1.000000000000E+000   8.640000000000E+001   3.000000000000E-002      2  1.000000000000E+000      0 orbacken_sfr_1
    42     1   163   355  2.080327221133E+000   2.000000000000E+000   1.000000000000E-003   1.422182000000E+002   1.000000000000E+000   8.640000000000E+001   3.000000000000E-002      2  1.000000000000E+000      0 orbacken_sfr_1
    43     1   163   354  1.140969759953E+000   2.000000000000E+000   1.000000000000E-003   1.421757000000E+002   1.000000000000E+000   8.640000000000E+001   3.000000000000E-002      2  1.000000000000E+000      0 orbacken_sfr_1
    44     1   164   354  9.361624563210E-001   2.000000000000E+000   1.000000000000E-003   1.421765000000E+002   1.000000000000E+000   8.640000000000E+001   3.000000000000E-002      2  1.000000000000E+000      0 orbacken_sfr_1
    45     1   164   353  2.001357711942E+000   2.000000000000E+000   1.000000000000E-003   1.421327000000E+002   1.000000000000E+000   8.640000000000E+001   3.000000000000E-002      2  1.000000000000E+000      0 orbacken_sfr_1
    46     1   164   352  2.001357711942E+000   2.000000000000E+000   1.000000000000E-003   1.420706000000E+002   1.000000000000E+000   8.640000000000E+001   3.000000000000E-002      2  1.000000000000E+000      0 orbacken_sfr_1
    47     1   164   351  6.595657465937E-001   2.000000000000E+000   1.000000000000E-003   1.420552000000E+002   1.000000000000E+000   8.640000000000E+001   3.000000000000E-002      2  1.000000000000E+000      0 orbacken_sfr_1
    48     1   163   351  1.369153376569E+000   2.000000000000E+000   1.000000000000E-003   1.420711000000E+002   1.000000000000E+000   8.640000000000E+001   3.000000000000E-002      2  1.000000000000E+000      0 orbacken_sfr_1
    49     1   163   350  2.032238207894E+000   2.000000000000E+000   1.000000000000E-003   1.420704000000E+002   1.000000000000E+000   8.640000000000E+001   3.000000000000E-002      2  1.000000000000E+000      0 orbacken_sfr_1
    50     1   163   349  2.032238207729E+000   2.000000000000E+000   1.000000000000E-003   1.420958000000E+002   1.000000000000E+000   8.640000000000E+001   3.000000000000E-002      2  1.000000000000E+000      0 orbacken_sfr_1
    51     1   163   348  2.038973358642E+000   2.000000000000E+000   1.000000000000E-003   1.421398000000E+002   1.000000000000E+000   8.640000000000E+001   3.000000000000E-002      2  1.000000000000E+000      0 orbacken_sfr_1
    52     1   163   347  2.062978763176E+000   2.000000000000E+000   1.000000000000E-003   1.421626000000E+002   1.000000000000E+000   8.640000000000E+001   3.000000000000E-002      2  1.000000000000E+000      0 orbacken_sfr_1
    53     1   163   346  5.619033750409E-001   2.000000000000E+000   1.000000000000E-003   1.421662000000E+002   1.000000000000E+000   8.640000000000E+001   3.000000000000E-002      2  1.000000000000E+000      0 orbacken_sfr_1
    54     1   162   346  1.501075388364E+000   2.000000000000E+000   1.000000000000E-003   1.421767000000E+002   1.000000000000E+000   8.640000000000E+001   3.000000000000E-002      2  1.000000000000E+000      0 orbacken_sfr_1
    55     1   162   345  2.087590952040E+000   2.000000000000E+000   1.000000000000E-003   1.421602000000E+002   1.000000000000E+000   8.640000000000E+001   3.000000000000E-002      2  1.000000000000E+000      0 orbacken_sfr_1
    56     1   162   344  2.107310884194E+000   2.000000000000E+000   1.000000000000E-003   1.421159000000E+002   1.000000000000E+000   8.640000000000E+001   3.000000000000E-002      2  1.000000000000E+000      0 orbacken_sfr_1
    57     1   162   343  1.188539707404E+000   2.000000000000E+000   1.000000000000E-003   1.421011000000E+002   1.000000000000E+000   8.640000000000E+001   3.000000000000E-002      2  1.000000000000E+000      0 orbacken_sfr_1
    58     1   161   343  9.187711770837E-001   2.000000000000E+000   1.000000000000E-003   1.421131000000E+002   1.000000000000E+000   8.640000000000E+001   3.000000000000E-002      2  1.000000000000E+000      0 orbacken_sfr_1
    59     1   161   342  2.107310884194E+000   2.000000000000E+000   1.000000000000E-003   1.420947000000E+002   1.000000000000E+000   8.640000000000E+001   3.000000000000E-002      2  1.000000000000E+000      0 orbacken_sfr_1
    60     1   161   341  2.107310884194E+000   2.000000000000E+000   1.000000000000E-003   1.420834000000E+002   1.000000000000E+000   8.640000000000E+001   3.000000000000E-002      2  1.000000000000E+000      0 orbacken_sfr_1
    61     1   161   340  1.214914204702E+000   2.000000000000E+000   1.000000000000E-003   1.420958000000E+002   1.000000000000E+000   8.640000000000E+001   3.000000000000E-002      2  1.000000000000E+000      0 orbacken_sfr_1
    62     1   160   340  8.923966794914E-001   2.000000000000E+000   1.000000000000E-003   1.420537000000E+002   1.000000000000E+000   8.640000000000E+001   3.000000000000E-002      2  1.000000000000E+000      0 orbacken_sfr_1
    63     1   160   339  2.107310884487E+000   2.000000000000E+000   1.000000000000E-003   1.420563000000E+002   1.000000000000E+000   8.640000000000E+001   3.000000000000E-002      2  1.000000000000E+000      0 orbacken_sfr_1
    64     1   160   338  2.103728073092E+000   2.000000000000E+000   1.000000000000E-003   1.420854000000E+002   1.000000000000E+000   8.640000000000E+001   3.000000000000E-002      2  1.000000000000E+000      0 orbacken_sfr_1
    65     1   160   337  1.499716253967E+000   2.000000000000E+000   1.000000000000E-003   1.420950000000E+002   1.000000000000E+000   8.640000000000E+001   3.000000000000E-002      2  1.000000000000E+000      0 orbacken_sfr_1
    66     1   159   337  5.767848836811E-001   2.000000000000E+000   1.000000000000E-003   1.420413000000E+002   1.000000000000E+000   8.640000000000E+001   3.000000000000E-002      2  1.000000000000E+000      0 orbacken_sfr_1
    67     1   159   336  2.063108349998E+000   2.000000000000E+000   1.000000000000E-003   1.420860000000E+002   1.000000000000E+000   8.640000000000E+001   3.000000000000E-002      2  1.000000000000E+000      0 orbacken_sfr_1
    68     1   159   335  2.007998423474E+000   2.000000000000E+000   1.000000000000E-003   1.422441000000E+002   1.000000000000E+000   8.640000000000E+001   3.000000000000E-002      2  1.000000000000E+000      0 orbacken_sfr_1
    69     1   159   334  2.007998423391E+000   2.000000000000E+000   1.000000000000E-003   1.423709000000E+002   1.000000000000E+000   8.640000000000E+001   3.000000000000E-002      2  1.000000000000E+000      0 orbacken_sfr_1
    70     1   159   333  2.007998423474E+000   2.000000000000E+000   1.000000000000E-003   1.424744000000E+002   1.000000000000E+000   8.640000000000E+001   3.000000000000E-002      2  1.000000000000E+000      0 orbacken_sfr_1
    71     1   159   332  2.206008381586E-001   2.000000000000E+000   1.000000000000E-003   1.429829000000E+002   1.000000000000E+000   8.640000000000E+001   3.000000000000E-002      2  1.000000000000E+000      0 orbacken_sfr_1
# defined by orbacken_sfr_2
    72     1   159   332  5.108157491830E-002   2.000000000000E+000   1.000000000000E-003   1.429829000000E+002   1.000000000000E+000   8.640000000000E+001   3.000000000000E-002      2  1.000000000000E+000      0 orbacken_sfr_2
    73     1   160   332  1.785622218696E+000   2.000000000000E+000   1.000000000000E-003   1.423930000000E+002   1.000000000000E+000   8.640000000000E+001   3.000000000000E-002      2  1.000000000000E+000      0 orbacken_sfr_2
    74     1   160   331  2.063390010322E+000   2.000000000000E+000   1.000000000000E-003   1.428733000000E+002   1.000000000000E+000   8.640000000000E+001   3.000000000000E-002      2  1.000000000000E+000      0 orbacken_sfr_2
    75     1   160   330  2.063390010322E+000   2.000000000000E+000   1.000000000000E-003   1.430664000000E+002   1.000000000000E+000   8.640000000000E+001   3.000000000000E-002      2  1.000000000000E+000      0 orbacken_sfr_2
    76     1   160   329  2.063390010322E+000   2.000000000000E+000   1.000000000000E-003   1.433154000000E+002   1.000000000000E+000   8.640000000000E+001   3.000000000000E-002      2  1.000000000000E+000      0 orbacken_sfr_2
    77     1   160   328  1.554453915113E-001   2.000000000000E+000   1.000000000000E-003   1.433311000000E+002   1.000000000000E+000   8.640000000000E+001   3.000000000000E-002      2  1.000000000000E+000      0 orbacken_sfr_2
    78     1   161   328  1.907944618811E+000   2.000000000000E+000   1.000000000000E-003   1.432743000000E+002   1.000000000000E+000   8.640000000000E+001   3.000000000000E-002      2  1.000000000000E+000      0 orbacken_sfr_2
    79     1   161   327  2.063390010322E+000   2.000000000000E+000   1.000000000000E-003   1.432925000000E+002   1.000000000000E+000   8.640000000000E+001   3.000000000000E-002      2  1.000000000000E+000      0 orbacken_sfr_2
    80     1   161   326  2.063390010322E+000   2.000000000000E+000   1.000000000000E-003   1.432696000000E+002   1.000000000000E+000   8.640000000000E+001   3.000000000000E-002      2  1.000000000000E+000      0 orbacken_sfr_2
    81     1   161   325  2.063390010322E+000   2.000000000000E+000   1.000000000000E-003   1.433917000000E+002   1.000000000000E+000   8.640000000000E+001   3.000000000000E-002      2  1.000000000000E+000      0 orbacken_sfr_2
    82     1   161   324  3.312299139630E-002   2.000000000000E+000   1.000000000000E-003   1.433578000000E+002   1.000000000000E+000   8.640000000000E+001   3.000000000000E-002      2  1.000000000000E+000      0 orbacken_sfr_2
    83     1   162   324  2.030267018926E+000   2.000000000000E+000   1.000000000000E-003   1.432336000000E+002   1.000000000000E+000   8.640000000000E+001   3.000000000000E-002      2  1.000000000000E+000      0 orbacken_sfr_2
    84     1   162   323  2.063390010322E+000   2.000000000000E+000   1.000000000000E-003   1.431173000000E+002   1.000000000000E+000   8.640000000000E+001   3.000000000000E-002      2  1.000000000000E+000      0 orbacken_sfr_2
    85     1   162   322  2.063390010322E+000   2.000000000000E+000   1.000000000000E-003   1.430916000000E+002   1.000000000000E+000   8.640000000000E+001   3.000000000000E-002      2  1.000000000000E+000      0 orbacken_sfr_2
    86     1   162   321  1.974190597993E+000   2.000000000000E+000   1.000000000000E-003   1.429952000000E+002   1.000000000000E+000   8.640000000000E+001   3.000000000000E-002      2  1.000000000000E+000      0 orbacken_sfr_2
    87     1   163   321  8.919941232955E-002   2.000000000000E+000   1.000000000000E-003   1.429323000000E+002   1.000000000000E+000   8.640000000000E+001   3.000000000000E-002      2  1.000000000000E+000      0 orbacken_sfr_2
    88     1   163   320  2.063390010322E+000   2.000000000000E+000   1.000000000000E-003   1.429154000000E+002   1.000000000000E+000   8.640000000000E+001   3.000000000000E-002      2  1.000000000000E+000      0 orbacken_sfr_2
    89     1   163   319  2.063390010322E+000   2.000000000000E+000   1.000000000000E-003   1.428601000000E+002   1.000000000000E+000   8.640000000000E+001   3.000000000000E-002      2  1.000000000000E+000      0 orbacken_sfr_2
    90     1   163   318  2.063390010322E+000   2.000000000000E+000   1.000000000000E-003   1.428870000000E+002   1.000000000000E+000   8.640000000000E+001   3.000000000000E-002      2  1.000000000000E+000      0 orbacken_sfr_2
    91     1   163   317  1.851868197878E+000   2.000000000000E+000   1.000000000000E-003   1.428165000000E+002   1.000000000000E+000   8.640000000000E+001   3.000000000000E-002      2  1.000000000000E+000      0 orbacken_sfr_2
    92     1   164   317  2.115218124446E-001   2.000000000000E+000   1.000000000000E-003   1.426412000000E+002   1.000000000000E+000   8.640000000000E+001   3.000000000000E-002      2  1.000000000000E+000      0 orbacken_sfr_2
    93     1   164   316  2.063390010322E+000   2.000000000000E+000   1.000000000000E-003   1.425553000000E+002   1.000000000000E+000   8.640000000000E+001   3.000000000000E-002      2  1.000000000000E+000      0 orbacken_sfr_2
    94     1   164   315  2.063390010322E+000   2.000000000000E+000   1.000000000000E-003   1.424685000000E+002   1.000000000000E+000   8.640000000000E+001   3.000000000000E-002      2  1.000000000000E+000      0 orbacken_sfr_2
    95     1   164   314  2.063390010322E+000   2.000000000000E+000   1.000000000000E-003   1.423248000000E+002   1.000000000000E+000   8.640000000000E+001   3.000000000000E-002      2  1.000000000000E+000      0 orbacken_sfr_2
    96     1   164   313  1.729545797763E+000   2.000000000000E+000   1.000000000000E-003   1.422254000000E+002   1.000000000000E+000   8.640000000000E+001   3.000000000000E-002      2  1.000000000000E+000      0 orbacken_sfr_2
    97     1   165   313  3.338442125596E-001   2.000000000000E+000   1.000000000000E-003   1.421396000000E+002   1.000000000000E+000   8.640000000000E+001   3.000000000000E-002      2  1.000000000000E+000      0 orbacken_sfr_2
    98     1   165   312  2.063390010322E+000   2.000000000000E+000   1.000000000000E-003   1.419416000000E+002   1.000000000000E+000   8.640000000000E+001   3.000000000000E-002      2  1.000000000000E+000      0 orbacken_sfr_2
    99     1   165   311  2.063390010322E+000   2.000000000000E+000   1.000000000000E-003   1.416928000000E+002   1.000000000000E+000   8.640000000000E+001   3.000000000000E-002      2  1.000000000000E+000      0 orbacken_sfr_2
   100     1   165   310  2.063390010322E+000   2.000000000000E+000   1.000000000000E-003   1.416474000000E+002   1.000000000000E+000   8.640000000000E+001   3.000000000000E-002      2  1.000000000000E+000      0 orbacken_sfr_2
   101     1   165   309  1.607223394037E+000   2.000000000000E+000   1.000000000000E-003   1.411684000000E+002   1.000000000000E+000   8.640000000000E+001   3.000000000000E-002      2  1.000000000000E+000      0 orbacken_sfr_2
   102     1   166   309  4.561666162854E-001   2.000000000000E+000   1.000000000000E-003   1.414189000000E+002   1.000000000000E+000   8.640000000000E+001   3.000000000000E-002      2  1.000000000000E+000      0 orbacken_sfr_2
   103     1   166   308  2.063390010322E+000   2.000000000000E+000   1.000000000000E-003   1.412729000000E+002   1.000000000000E+000   8.640000000000E+001   3.000000000000E-002      2  1.000000000000E+000      0 orbacken_sfr_2
   104     1   166   307  2.063390010322E+000   2.000000000000E+000   1.000000000000E-003   1.411047000000E+002   1.000000000000E+000   8.640000000000E+001   3.000000000000E-002      2  1.000000000000E+000      0 orbacken_sfr_2
   105     1   166   306  2.063390010322E+000   2.000000000000E+000   1.000000000000E-003   1.407241000000E+002   1.000000000000E+000   8.640000000000E+001   3.000000000000E-002      2  1.000000000000E+000      0 orbacken_sfr_2
   106     1   166   305  1.484900993922E+000   2.000000000000E+000   1.000000000000E-003   1.407019000000E+002   1.000000000000E+000   8.640000000000E+001   3.000000000000E-002      2  1.000000000000E+000      0 orbacken_sfr_2
   107     1   167   305  5.784890164004E-001   2.000000000000E+000   1.000000000000E-003   1.406915000000E+002   1.000000000000E+000   8.640000000000E+001   3.000000000000E-002      2  1.000000000000E+000      0 orbacken_sfr_2
   108     1   167   304  2.063390010322E+000   2.000000000000E+000   1.000000000000E-003   1.405647000000E+002   1.000000000000E+000   8.640000000000E+001   3.000000000000E-002      2  1.000000000000E+000      0 orbacken_sfr_2
   109     1   167   303  2.063390010322E+000   2.000000000000E+000   1.000000000000E-003   1.403344000000E+002   1.000000000000E+000   8.640000000000E+001   3.000000000000E-002      2  1.000000000000E+000      0 orbacken_sfr_2
   110     1   167   302  5.743229747346E-001   2.000000000000E+000   1.000000000000E-003   1.401435000000E+002   1.000000000000E+000   8.640000000000E+001   3.000000000000E-002      2  1.000000000000E+000      0 orbacken_sfr_2
# defined by orbacken_sfr_3
   111     1   167   302  1.454553209332E+000   2.000000000000E+000   1.000000000000E-003   1.401435000000E+002   1.000000000000E+000   8.640000000000E+001   3.000000000000E-002      2  1.000000000000E+000      0 orbacken_sfr_3
   112     1   167   301  2.015564437190E+000   2.000000000000E+000   1.000000000000E-003   1.398564000000E+002   1.000000000000E+000   8.640000000000E+001   3.000000000000E-002      2  1.000000000000E+000      0 orbacken_sfr_3
   113     1   167   300  1.104099037928E+000   2.000000000000E+000   1.000000000000E-003   1.398078000000E+002   1.000000000000E+000   8.640000000000E+001   3.000000000000E-002      2  1.000000000000E+000      0 orbacken_sfr_3
   114     1   168   300  9.654335575588E-001   2.000000000000E+000   1.000000000000E-003   1.395689000000E+002   1.000000000000E+000   8.640000000000E+001   3.000000000000E-002      2  1.000000000000E+000      0 orbacken_sfr_3
   115     1   168   299  2.073870214956E+000   2.000000000000E+000   1.000000000000E-003   1.395509000000E+002   1.000000000000E+000   8.640000000000E+001   3.000000000000E-002      2  1.000000000000E+000      0 orbacken_sfr_3
   116     1   168   298  2.195342659266E+000   2.000000000000E+000   1.000000000000E-003   1.395451000000E+002   1.000000000000E+000   8.640000000000E+001   3.000000000000E-002      2  1.000000000000E+000      0 orbacken_sfr_3
   117     1   168   297  6.282300653914E-001   2.000000000000E+000   1.000000000000E-003   1.397310000000E+002   1.000000000000E+000   8.640000000000E+001   3.000000000000E-002      2  1.000000000000E+000      0 orbacken_sfr_3
   118     1   169   297  1.865401479874E+000   2.000000000000E+000   1.000000000000E-003   1.394145000000E+002   1.000000000000E+000   8.640000000000E+001   3.000000000000E-002      2  1.000000000000E+000      0 orbacken_sfr_3
   119     1   169   296  1.483189451408E+000   2.000000000000E+000   1.000000000000E-003   1.394797000000E+002   1.000000000000E+000   8.640000000000E+001   3.000000000000E-002      2  1.000000000000E+000      0 orbacken_sfr_3
   120     1   170   296  1.015311625034E+000   2.000000000000E+000   1.000000000000E-003   1.393614000000E+002   1.000000000000E+000   8.640000000000E+001   3.000000000000E-002      2  1.000000000000E+000      0 orbacken_sfr_3
   121     1   170   295  2.242288520140E+000   2.000000000000E+000   1.000000000000E-003   1.392728000000E+002   1.000000000000E+000   8.640000000000E+001   3.000000000000E-002      2  1.000000000000E+000      0 orbacken_sfr_3
   122     1   171   295  3.048025038083E-001   2.000000000000E+000   1.000000000000E-003   1.392008000000E+002   1.000000000000E+000   8.640000000000E+001   3.000000000000E-002      2  1.000000000000E+000      0 orbacken_sfr_3
   123     1   171   294  2.547091022795E+000   2.000000000000E+000   1.000000000000E-003   1.390475000000E+002   1.000000000000E+000   8.640000000000E+001   3.000000000000E-002      2  1.000000000000E+000      0 orbacken_sfr_3
   124     1   171   293  3.779229252738E-001   2.000000000000E+000   1.000000000000E-003   1.390075000000E+002   1.000000000000E+000   8.640000000000E+001   3.000000000000E-002      2  1.000000000000E+000      0 orbacken_sfr_3
   125     1   172   293  2.169168098675E+000   2.000000000000E+000   1.000000000000E-003   1.389225000000E+002   1.000000000000E+000   8.640000000000E+001   3.000000000000E-002      2  1.000000000000E+000      0 orbacken_sfr_3
   126     1   172   292  1.060648353934E+000   2.000000000000E+000   1.000000000000E-003   1.388977000000E+002   1.000000000000E+000   8.640000000000E+001   3.000000000000E-002      2  1.000000000000E+000      0 orbacken_sfr_3
   127     1   173   292  1.486442669438E+000   2.000000000000E+000   1.000000000000E-003   1.388239000000E+002   1.000000000000E+000   8.640000000000E+001   3.000000000000E-002      2  1.000000000000E+000      0 orbacken_sfr_3
   128     1   173   291  1.743373783170E+000   2.000000000000E+000   1.000000000000E-003   1.388872000000E+002   1.000000000000E+000   8.640000000000E+001   3.000000000000E-002      2  1.000000000000E+000      0 orbacken_sfr_3