# Name File for MODFLOW created on 2021-05-25 by ModelMuse Version 4.3.0.0
BEGIN OPTIONS
  LIST hagfors.lst
  PRINT_INPUT
  SAVE_FLOWS
END OPTIONS

BEGIN PACKAGES
  DIS6         hagfors.dis
  IC6          hagfors.ic
  NPF6         hagfors.npf
  OC6          hagfors.oc
  GHB6         hagfors.ghb
  SFR6         hagfors.sfr
END PACKAGES
