# File generated by Flopy version 3.3.5 on 12/09/2021 at 09:34:07.
BEGIN options
END options

BEGIN timing
  TDIS6  hagfors_1.tdis
END timing

BEGIN models
  gwf6  hagfors_1.nam  hagfors_1
END models

BEGIN exchanges
END exchanges

BEGIN solutiongroup  1
  ims6  hagfors_1.ims  hagfors_1
END solutiongroup  1

