BEGIN TIMING
  TDIS6 hagfors.tdis
END TIMING

BEGIN MODELS
  GWF6 hagfors.nam hagfors
END MODELS

BEGIN EXCHANGES
END EXCHANGES

BEGIN SOLUTIONGROUP     1
  MXITER     1
  IMS6 hagfors.ims hagfors
END SOLUTIONGROUP

