# File generated by Flopy version 3.3.5 on 11/09/2021 at 14:54:55.
BEGIN options
  SAVE_FLOWS
  NEWTON  UNDER_RELAXATION
END options

BEGIN packages
  disv6  .\experimental.disv  disv
  ic6  .\experimental.ic  ic
  npf6  .\experimental.npf  npf
  oc6  .\experimental.oc  oc
  sto6  .\experimental.sto  sto
  ghb6  .\experimental.ghb  ghb
  sfr6  .\experimental.sfr  sfr
  obs6  .\experimental.obs  gwf_obs
  RCH6  experimental.rch  rch
END packages

