# File generated by Flopy version 3.3.5 on 11/09/2021 at 14:54:56.
BEGIN options
  DIGITS  10
  PRINT_INPUT
END options

BEGIN continuous  FILEOUT  sfr_leakage.obs.csv
  leak-1  sfr  1
  leak-2  sfr  2
  leak-3  sfr  3
  leak-4  sfr  4
  leak-5  sfr  5
  leak-6  sfr  6
  leak-7  sfr  7
  leak-8  sfr  8
  leak-9  sfr  9
  leak-10  sfr  10
  leak-11  sfr  11
  leak-12  sfr  12
  leak-13  sfr  13
  leak-14  sfr  14
  leak-15  sfr  15
  leak-16  sfr  16
  leak-17  sfr  17
  leak-18  sfr  18
  leak-19  sfr  19
  leak-20  sfr  20
  leak-21  sfr  21
  leak-22  sfr  22
  leak-23  sfr  23
  leak-24  sfr  24
  leak-25  sfr  25
  leak-26  sfr  26
  leak-27  sfr  27
  leak-28  sfr  28
  leak-29  sfr  29
  leak-30  sfr  30
  leak-31  sfr  31
  leak-32  sfr  32
  leak-33  sfr  33
  leak-34  sfr  34
  leak-35  sfr  35
  leak-36  sfr  36
  leak-37  sfr  37
  leak-38  sfr  38
  leak-39  sfr  39
  leak-40  sfr  40
  leak-41  sfr  41
  leak-42  sfr  42
  leak-43  sfr  43
  leak-44  sfr  44
  leak-45  sfr  45
  leak-46  sfr  46
  leak-47  sfr  47
  leak-48  sfr  48
  leak-49  sfr  49
  leak-50  sfr  50
  leak-51  sfr  51
  leak-52  sfr  52
  leak-53  sfr  53
  leak-54  sfr  54
  leak-55  sfr  55
  leak-56  sfr  56
  leak-57  sfr  57
  leak-58  sfr  58
  leak-59  sfr  59
  leak-60  sfr  60
  leak-61  sfr  61
  leak-62  sfr  62
  leak-63  sfr  63
  leak-64  sfr  64
  leak-65  sfr  65
  leak-66  sfr  66
  leak-67  sfr  67
  leak-68  sfr  68
  leak-69  sfr  69
  leak-70  sfr  70
  leak-71  sfr  71
  leak-72  sfr  72
  leak-73  sfr  73
  leak-74  sfr  74
  leak-75  sfr  75
  leak-76  sfr  76
  leak-77  sfr  77
  leak-78  sfr  78
  leak-79  sfr  79
  leak-80  sfr  80
  leak-81  sfr  81
  leak-82  sfr  82
  leak-83  sfr  83
  leak-84  sfr  84
  leak-85  sfr  85
  leak-86  sfr  86
  leak-87  sfr  87
  leak-88  sfr  88
  leak-89  sfr  89
  leak-90  sfr  90
  leak-91  sfr  91
  leak-92  sfr  92
  leak-93  sfr  93
  leak-94  sfr  94
  leak-95  sfr  95
  leak-96  sfr  96
  leak-97  sfr  97
  leak-98  sfr  98
  leak-99  sfr  99
  leak-100  sfr  100
  leak-101  sfr  101
  leak-102  sfr  102
  leak-103  sfr  103
  leak-104  sfr  104
  leak-105  sfr  105
  leak-106  sfr  106
  leak-107  sfr  107
  leak-108  sfr  108
  leak-109  sfr  109
  leak-110  sfr  110
  leak-111  sfr  111
  leak-112  sfr  112
  leak-113  sfr  113
  leak-114  sfr  114
  leak-115  sfr  115
  leak-116  sfr  116
  leak-117  sfr  117
  leak-118  sfr  118
  leak-119  sfr  119
  leak-120  sfr  120
  leak-121  sfr  121
  leak-122  sfr  122
  leak-123  sfr  123
  leak-124  sfr  124
  leak-125  sfr  125
  leak-126  sfr  126
  leak-127  sfr  127
  leak-128  sfr  128
  leak-129  sfr  129
  leak-130  sfr  130
  leak-131  sfr  131
  leak-132  sfr  132
  leak-133  sfr  133
  leak-134  sfr  134
  leak-135  sfr  135
  leak-136  sfr  136
  leak-137  sfr  137
  leak-138  sfr  138
  leak-139  sfr  139
  leak-140  sfr  140
  leak-141  sfr  141
  leak-142  sfr  142
  leak-143  sfr  143
  leak-144  sfr  144
  leak-145  sfr  145
  leak-146  sfr  146
  leak-147  sfr  147
  leak-148  sfr  148
  leak-149  sfr  149
  leak-150  sfr  150
  leak-151  sfr  151
  leak-152  sfr  152
  leak-153  sfr  153
  leak-154  sfr  154
  leak-155  sfr  155
  leak-156  sfr  156
  leak-157  sfr  157
  leak-158  sfr  158
  leak-159  sfr  159
  leak-160  sfr  160
  leak-161  sfr  161
  leak-162  sfr  162
  leak-163  sfr  163
  leak-164  sfr  164
  leak-165  sfr  165
  leak-166  sfr  166
  leak-167  sfr  167
  leak-168  sfr  168
  leak-169  sfr  169
  leak-170  sfr  170
  leak-171  sfr  171
  leak-172  sfr  172
  leak-173  sfr  173
  leak-174  sfr  174
  leak-175  sfr  175
  leak-176  sfr  176
  leak-177  sfr  177
  leak-178  sfr  178
  leak-179  sfr  179
  leak-180  sfr  180
  leak-181  sfr  181
  leak-182  sfr  182
  leak-183  sfr  183
  leak-184  sfr  184
  leak-185  sfr  185
  leak-186  sfr  186
  leak-187  sfr  187
  leak-188  sfr  188
  leak-189  sfr  189
  leak-190  sfr  190
  leak-191  sfr  191
  leak-192  sfr  192
  leak-193  sfr  193
  leak-194  sfr  194
  leak-195  sfr  195
  leak-196  sfr  196
  leak-197  sfr  197
  leak-198  sfr  198
  leak-199  sfr  199
  leak-200  sfr  200
  leak-201  sfr  201
  leak-202  sfr  202
  leak-203  sfr  203
  leak-204  sfr  204
  leak-205  sfr  205
  leak-206  sfr  206
  leak-207  sfr  207
  leak-208  sfr  208
  leak-209  sfr  209
  leak-210  sfr  210
  leak-211  sfr  211
  leak-212  sfr  212
  leak-213  sfr  213
  leak-214  sfr  214
  leak-215  sfr  215
  leak-216  sfr  216
  leak-217  sfr  217
  leak-218  sfr  218
  leak-219  sfr  219
  leak-220  sfr  220
  leak-221  sfr  221
  leak-222  sfr  222
  leak-223  sfr  223
  leak-224  sfr  224
  leak-225  sfr  225
  leak-226  sfr  226
  leak-227  sfr  227
  leak-228  sfr  228
  leak-229  sfr  229
  leak-230  sfr  230
  leak-231  sfr  231
  leak-232  sfr  232
  leak-233  sfr  233
  leak-234  sfr  234
  leak-235  sfr  235
  leak-236  sfr  236
  leak-237  sfr  237
  leak-238  sfr  238
  leak-239  sfr  239
  leak-240  sfr  240
  leak-241  sfr  241
  leak-242  sfr  242
  leak-243  sfr  243
  leak-244  sfr  244
  leak-245  sfr  245
  leak-246  sfr  246
  leak-247  sfr  247
  leak-248  sfr  248
  leak-249  sfr  249
  leak-250  sfr  250
  leak-251  sfr  251
  leak-252  sfr  252
  leak-253  sfr  253
  leak-254  sfr  254
  leak-255  sfr  255
  leak-256  sfr  256
  leak-257  sfr  257
  leak-258  sfr  258
  leak-259  sfr  259
  leak-260  sfr  260
  leak-261  sfr  261
  leak-262  sfr  262
  leak-263  sfr  263
  leak-264  sfr  264
  leak-265  sfr  265
  leak-266  sfr  266
  leak-267  sfr  267
  leak-268  sfr  268
  leak-269  sfr  269
  leak-270  sfr  270
END continuous  FILEOUT  sfr_leakage.obs.csv

