# File generated by Flopy version 3.3.3 on 06/05/2021 at 19:37:49.
BEGIN OPTIONS
  LENGTH_UNITS  meters
  XORIGIN  4.27170338E+05
  YORIGIN  6.65451549E+06
  ANGROT      45.00000000
END OPTIONS

BEGIN DIMENSIONS
  NLAY  3
  NROW  234
  NCOL  380
END DIMENSIONS

BEGIN GRIDDATA
  delr
    OPEN/CLOSE  'hagfors.dis_delr.txt'  FACTOR  1.0
  delc
    OPEN/CLOSE  'hagfors.dis_delc.txt'  FACTOR  1.0
  top
    OPEN/CLOSE  'hagfors.dis_top.txt'  FACTOR  1.0
  botm  LAYERED
    OPEN/CLOSE  'hagfors.dis_botm_layer1.txt'  FACTOR  1.0
    OPEN/CLOSE  'hagfors.dis_botm_layer2.txt'  FACTOR  1.0
    OPEN/CLOSE  'hagfors.dis_botm_layer3.txt'  FACTOR  1.0
  idomain  LAYERED
    OPEN/CLOSE  'hagfors.dis_idomain_layer1.txt'  FACTOR  1
    OPEN/CLOSE  'hagfors.dis_idomain_layer2.txt'  FACTOR  1
    OPEN/CLOSE  'hagfors.dis_idomain_layer3.txt'  FACTOR  1
END GRIDDATA

