# File generated by Flopy version 3.3.3 on 06/05/2021 at 19:37:50.
BEGIN options
  DIGITS  10
  PRINT_INPUT
END options

BEGIN continuous  FILEOUT  sfr.obs.csv
  NI15-O1-STG  STAGE  264
  NI15-O44-STG  STAGE  280
  NI15-O46-STG  STAGE  376
  NI15-O47-STG  STAGE  415
  NI15-O48-STG  STAGE  522
  GAGE-1  INFLOW  620
END continuous  FILEOUT  sfr.obs.csv

