# File generated by Flopy version 3.3.3 on 06/05/2021 at 19:37:50.
BEGIN OPTIONS
  BUDGET  FILEOUT  hagfors.cbc
  HEAD  FILEOUT  hagfors.bhd
END OPTIONS

BEGIN PERIOD  1
  SAVE  head  all
  SAVE  budget  all
  PRINT  budget  all
END PERIOD  1

