# File generated by Flopy version 3.3.3 on 06/05/2021 at 19:37:49.
BEGIN OPTIONS
  LIST  hagfors.lst
  PRINT_INPUT
  SAVE_FLOWS
END OPTIONS

BEGIN PACKAGES
  dis6  hagfors.dis
  ic6  hagfors.ic
  npf6  hagfors.npf
  oc6  hagfors.oc
  ghb6  hagfors.ghb
  sfr6  hagfors.sfr
  RCH6  hagfors.rcha  rch
  OBS6  hagfors.obs  gwf_obs
END PACKAGES

