# File generated by Flopy version 3.3.3 on 06/05/2021 at 19:37:49.
BEGIN options
  TIME_UNITS  days
  START_DATE_TIME  17-06-2016
END options

BEGIN dimensions
  NPER  1
END dimensions

BEGIN perioddata
       1.00000000  1       1.00000000
END perioddata

