# File generated by Flopy version 3.3.3 on 06/05/2021 at 19:37:50.
BEGIN options
  DIGITS  10
  PRINT_INPUT
END options

BEGIN continuous  FILEOUT  head.obs.csv
  B9-2  HEAD  1 44 13  1 44 14
  B10-2  HEAD  1 98 69  1 98 70
  B12-1  HEAD  1 106 325  1 106 326
  B16-1  HEAD  1 140 265  1 140 266
  B2-1  HEAD  1 126 261  1 126 262
  B22-1  HEAD  1 111 321  1 111 322
  B27  HEAD  1 107 330  1 107 331
  B29  HEAD  1 116 264  1 116 265
  KB1-1  HEAD  1 166 236  1 166 237
  KB4-3  HEAD  1 99 178  1 99 179
  NI1301-1  HEAD  1 112 329  1 112 330
  NI1302-1  HEAD  1 109 325  1 109 326
  NI1403-1  HEAD  1 165 282  1 165 283
  NI1405-1  HEAD  1 157 290  1 157 291
  NI1407-1  HEAD  1 112 311  1 112 312
  NI1408-1  HEAD  1 106 311  1 106 312
  NI1409-1  HEAD  1 122 311  1 122 312
  NI1410-1  HEAD  1 121 321  1 121 322
  NI1411-1  HEAD  1 116 327  1 116 328
  NI1412-1  HEAD  1 165 278  1 165 279
  NI1413-1  HEAD  1 169 268  1 169 269
  NI1501-1  HEAD  1 102 270  1 102 271
  NI1502-2  HEAD  1 92 336  1 92 337
  NI1503-2  HEAD  1 94 339  1 94 340
  NI1504-2  HEAD  1 99 336  1 99 337
  NI1505-1  HEAD  1 101 327  1 101 328
  NI1506-1  HEAD  1 105 325  1 105 326
  NI15-O1  HEAD  1 171 221  1 171 222
  NI15-O44  HEAD  1 161 226  1 161 227
  NI15-O46  HEAD  1 115 223  1 115 224
  NI15-O47  HEAD  1 121 203  1 121 204
  NI15-O48  HEAD  1 81 152  1 81 153
  NI1601-1  HEAD  1 160 245  1 160 246
  NI1602-1  HEAD  1 151 210  1 151 211
  NI1603-1  HEAD  1 147 221  1 147 222
  NI1605b-1  HEAD  1 164 287  1 164 288
  NI1606-1  HEAD  1 135 199  1 135 200
  NI1607-1  HEAD  1 173 223  1 173 224
  NI1608-1  HEAD  1 176 217  1 176 218
  NI1609-2  HEAD  1 176 221  1 176 222
  NI1610-2  HEAD  1 174 222  1 174 223
  NI1611-1  HEAD  1 174 226  1 174 227
  NI1612-1  HEAD  1 164 214  1 164 215
  NI1613-1  HEAD  1 148 221  1 148 222
  NI1703-1  HEAD  1 168 227  1 168 228
  NI1704-1  HEAD  1 83 167  1 83 168
  NI1705-1  HEAD  1 94 173  1 94 174
  NI1801-1  HEAD  1 90 166  1 90 167
  NI1802-1  HEAD  1 92 168  1 92 169
  NI1803-1  HEAD  1 95 169  1 95 170
  NI1804-1  HEAD  1 98 171  1 98 172
  B9-4  HEAD  2 44 13  2 44 14
  B10-4  HEAD  2 98 69  2 98 70
  B13-1  HEAD  2 112 331  2 112 332
  B14-1  HEAD  2 118 332  2 118 333
  B15-1  HEAD  2 108 347  2 108 348
  B20-1  HEAD  2 102 328  2 102 329
  B21-1  HEAD  2 109 327  2 109 328
  B2-2  HEAD  2 126 261  2 126 262
  B22-2  HEAD  2 111 321  2 111 322
  B26  HEAD  2 109 334  2 109 335
  B35  HEAD  2 161 271  2 161 272
  B36  HEAD  2 164 267  2 164 268
  B37  HEAD  2 167 274  2 167 275
  B8-1  HEAD  2 146 83  2 146 84
  KB4-4  HEAD  2 99 178  2 99 179
  NI1301-2  HEAD  2 112 329  2 112 330
  NI1302-2  HEAD  2 109 325  2 109 326
  NI1401-1  HEAD  2 114 322  2 114 323
  NI1402b-1  HEAD  2 108 326  2 108 327
  NI1404-1  HEAD  2 110 330  2 110 331
  NI1407-2  HEAD  2 112 311  2 112 312
  NI1408-2  HEAD  2 106 311  2 106 312
  NI1409-2  HEAD  2 122 311  2 122 312
  NI1410-2  HEAD  2 121 321  2 121 322
  NI1411-2  HEAD  2 116 327  2 116 328
  NI1413-2  HEAD  2 169 268  2 169 269
  NI1501-2  HEAD  2 102 270  2 102 271
  NI1505-2  HEAD  2 101 327  2 101 328
  NI1506-2  HEAD  2 105 325  2 105 326
  NI1507-2  HEAD  2 94 316  2 94 317
  NI1601-2  HEAD  2 160 245  2 160 246
  NI1604-1  HEAD  2 167 272  2 167 273
  NI1606-2  HEAD  2 135 199  2 135 200
  NI1607-2  HEAD  2 173 223  2 173 224
  NI1608-2  HEAD  2 176 217  2 176 218
  NI1703-2  HEAD  2 168 227  2 168 228
  NI1706-1  HEAD  2 113 179  2 113 180
  NI1709-1  HEAD  2 159 301  2 159 302
  NI1712-1  HEAD  2 175 235  2 175 236
  NI1801-3  HEAD  2 90 166  2 90 167
  NI1803-3  HEAD  2 95 169  2 95 170
  NI1804-3  HEAD  2 98 171  2 98 172
  B9-5  HEAD  3 44 13  3 44 14
  B10-5  HEAD  3 98 69  3 98 70
  B16-2  HEAD  3 140 265  3 140 266
  B19-4  HEAD  3 166 283  3 166 284
  B21-3  HEAD  3 109 327  3 109 328
  B22-4  HEAD  3 111 321  3 111 322
  B2-3  HEAD  3 126 261  3 126 262
  B30  HEAD  3 100 264  3 100 265
  B34  HEAD  3 159 264  3 159 265
  B4  HEAD  3 80 370  3 80 371
  B8-2  HEAD  3 146 83  3 146 84
  NI1301-3  HEAD  3 112 329  3 112 330
  NI1302-3  HEAD  3 109 325  3 109 326
  NI1401-2  HEAD  3 114 322  3 114 323
  NI1402b-2  HEAD  3 108 326  3 108 327
  NI1403-2  HEAD  3 165 282  3 165 283
  NI1404-2  HEAD  3 110 330  3 110 331
  NI1405-2  HEAD  3 157 290  3 157 291
  NI1406-1  HEAD  3 109 323  3 109 324
  NI1407-3  HEAD  3 112 311  3 112 312
  NI1408-3  HEAD  3 106 311  3 106 312
  NI1409-3  HEAD  3 122 311  3 122 312
  NI1410-3  HEAD  3 121 321  3 121 322
  NI1411-3  HEAD  3 116 327  3 116 328
  NI1412-3  HEAD  3 165 278  3 165 279
  NI1413-3  HEAD  3 169 268  3 169 269
  NI1501-3  HEAD  3 102 270  3 102 271
  NI1502-3  HEAD  3 92 336  3 92 337
  NI1503-3  HEAD  3 94 339  3 94 340
  NI1504-3  HEAD  3 99 336  3 99 337
  NI1505-3  HEAD  3 101 327  3 101 328
  NI1506-3  HEAD  3 105 325  3 105 326
  NI1507-3  HEAD  3 94 316  3 94 317
  NI1601-3  HEAD  3 160 245  3 160 246
  NI1602-2  HEAD  3 151 210  3 151 211
  NI1603-2  HEAD  3 147 221  3 147 222
  NI1604-3  HEAD  3 167 272  3 167 273
  NI1605b-3  HEAD  3 164 287  3 164 288
  NI1606-3  HEAD  3 135 199  3 135 200
  NI1607-3  HEAD  3 173 223  3 173 224
  NI1608-3  HEAD  3 176 217  3 176 218
  NI1609-3  HEAD  3 176 221  3 176 222
  NI1612-2  HEAD  3 164 214  3 164 215
  NI1701-1  HEAD  3 161 231  3 161 232
  NI1702-1  HEAD  3 156 232  3 156 233
  NI1704-2  HEAD  3 83 167  3 83 168
  NI1705-2  HEAD  3 94 173  3 94 174
  NI1706-2  HEAD  3 113 179  3 113 180
  NI1707-1  HEAD  3 104 172  3 104 173
  NI1708-1  HEAD  3 169 262  3 169 263
  NI1711-1  HEAD  3 174 272  3 174 273
END continuous  FILEOUT  head.obs.csv

