# File generated by Flopy version 3.3.3 on 06/05/2021 at 19:37:49.
BEGIN options
  PRINT_OPTION  summary
  COMPLEXITY  simple
END options

BEGIN nonlinear
  OUTER_DVCLOSE       0.01000000
  OUTER_MAXIMUM  750
END nonlinear

BEGIN linear
  INNER_MAXIMUM  50
  LINEAR_ACCELERATION  bicgstab
END linear

