# File generated by Flopy version 3.3.3 on 06/05/2021 at 19:37:50.
BEGIN OPTIONS
  AUXILIARY  iface
  BOUNDNAMES
  PRINT_INPUT
  SAVE_FLOWS
END OPTIONS

BEGIN DIMENSIONS
  MAXBOUND  144
END DIMENSIONS

BEGIN PERIOD  1
    OPEN/CLOSE  'hagfors.ghb_stress_period_data_1.txt'
END PERIOD  1

