# File generated by Flopy version 3.3.3 on 06/05/2021 at 19:37:50.
BEGIN options
  READASARRAYS
  SAVE_FLOWS
END options

BEGIN period  1
  recharge
    OPEN/CLOSE  'hagfors.rcha_recharge_1.txt'  FACTOR  1.0
END period  1

