# File generated by Flopy version 3.3.3 on 06/05/2021 at 19:37:49.
BEGIN options
END options

BEGIN TIMING
  TDIS6  hagfors.tdis
END TIMING

BEGIN MODELS
  gwf6  hagfors.nam  hagfors
END MODELS

BEGIN EXCHANGES
END EXCHANGES

BEGIN SOLUTIONGROUP  1
  MXITER  1
  ims6  hagfors.ims  hagfors
END SOLUTIONGROUP  1

