# File generated by Flopy version 3.3.5 on 01/14/2022 at 16:32:46.
BEGIN options
  FIXED_CELL
  auxiliary  MULTIPLIER
  AUXMULTNAME  multiplier
  BOUNDNAMES
  PRINT_INPUT
  PRINT_FLOWS
  SAVE_FLOWS
END options

BEGIN dimensions
  MAXBOUND  2846
END dimensions

BEGIN period  1
    OPEN/CLOSE  'hagfors_1.rch_stress_period_data_1.txt'
END period  1

BEGIN period  2
    OPEN/CLOSE  'hagfors_1.rch_stress_period_data_2.txt'
END period  2

