# File generated by Flopy version 3.3.5 on 01/14/2022 at 23:13:10.
BEGIN options
  auxiliary  MULTIPLIER
  AUXMULTNAME  multiplier
  BOUNDNAMES
  PRINT_INPUT
  PRINT_FLOWS
  SAVE_FLOWS
END options

BEGIN dimensions
  MAXBOUND  249
END dimensions

BEGIN period  1
    OPEN/CLOSE  'hagfors_1.ghb_stress_period_data_1.txt'
END period  1

