# File generated by Flopy version 3.3.5 on 01/14/2022 at 16:32:45.
BEGIN griddata
  strt
    OPEN/CLOSE  'hagfors_1.ic_strt.txt'  FACTOR  1.0
END griddata

