# File generated by Flopy version 3.3.5 on 01/14/2022 at 16:32:45.
BEGIN options
  SAVE_FLOWS
END options

BEGIN griddata
  icelltype
    OPEN/CLOSE  'hagfors_1.npf_icelltype.txt'  FACTOR  1
  k
    OPEN/CLOSE  'hagfors_1.npf_k.txt'  FACTOR  1.0
  k33
    OPEN/CLOSE  'hagfors_1.npf_k33.txt'  FACTOR  1.0
END griddata

