# File generated by Flopy version 3.3.5 on 01/14/2022 at 23:13:10.
BEGIN options
  TIME_UNITS  days
  START_DATE_TIME  2015-12-31
END options

BEGIN dimensions
  NPER  2
END dimensions

BEGIN perioddata
       0.00000000  1       1.00000000
    1460.00000000  48       1.00000000
END perioddata

