# File generated by Flopy version 3.3.5 on 01/14/2022 at 16:32:46.
BEGIN options
  DIGITS  10
  PRINT_INPUT
END options

BEGIN continuous  FILEOUT  head.obs.csv
    OPEN/CLOSE  'hagfors_1.obs_continuous_head.obs.csv.txt'
END continuous  FILEOUT  head.obs.csv

