# File generated by Flopy version 3.3.5 on 01/14/2022 at 16:32:45.
BEGIN options
  SAVE_FLOWS
  NEWTON  UNDER_RELAXATION
END options

BEGIN packages
  OBS6  .\hagfors_1.obs  gwf_obs
  RCH6  .\hagfors_1.rch  rch
  GHB6  .\hagfors_1.ghb  ghb
  STO6  .\hagfors_1.sto  sto
  OC6  .\hagfors_1.oc  oc
  NPF6  .\hagfors_1.npf  npf
  IC6  .\hagfors_1.ic  ic
  DISV6  .\hagfors_1.disv  disv
  SFR6  .\hagfors_1.sfr  sfr
END packages

