# File generated by Flopy version 3.3.5 on 01/14/2022 at 16:32:45.
BEGIN options
  BUDGET  FILEOUT  hagfors_1.cbb
  HEAD  FILEOUT  hagfors_1.hds
  HEAD  PRINT_FORMAT  COLUMNS  10  WIDTH  15  DIGITS  6  GENERAL
END options

BEGIN period  1
  SAVE  HEAD  ALL
  SAVE  BUDGET  ALL
  PRINT  HEAD  FIRST
  PRINT  HEAD  LAST
  PRINT  BUDGET  LAST
END period  1

