# File generated by Flopy version 3.3.5 on 01/14/2022 at 23:13:10.
BEGIN options
  SAVE_FLOWS
END options

BEGIN griddata
  iconvert
    OPEN/CLOSE  'hagfors_1.sto_iconvert.txt'  FACTOR  1
  ss
    OPEN/CLOSE  'hagfors_1.sto_ss.txt'  FACTOR  1.0
  sy
    OPEN/CLOSE  'hagfors_1.sto_sy.txt'  FACTOR  1.0
END griddata

BEGIN period  1
  STEADY-STATE
END period  1

BEGIN period  2
  TRANSIENT
END period  2

