# File generated by Flopy version 3.3.5 on 11/03/2021 at 09:22:10.
BEGIN griddata
  strt
    CONSTANT     138.00000000
END griddata

