# File generated by Flopy version 3.3.5 on 11/09/2021 at 14:51:25.
BEGIN options
  SAVE_FLOWS
  NEWTON  UNDER_RELAXATION
END options

BEGIN packages
  OBS6  .\experimental.obs  gwf_obs
  SFR6  .\experimental.sfr  sfr
  RCH6  .\experimental.rch  rch
  GHB6  .\experimental.ghb  ghb
  STO6  .\experimental.sto  sto
  OC6  .\experimental.oc  oc
  NPF6  .\experimental.npf  npf
  IC6  .\experimental.ic  ic
  DISV6  .\experimental.disv  disv
END packages

