# File generated by Flopy version 3.3.5 on 11/06/2021 at 11:40:47.
BEGIN griddata
  strt
    CONSTANT     138.00000000
END griddata

