# File generated by Flopy version 3.3.5 on 11/09/2021 at 14:51:27.
BEGIN options
  DIGITS  10
  PRINT_INPUT
END options

BEGIN continuous  FILEOUT  head.obs.csv
  B9-2  HEAD  1 357  1 358
  B10-2  HEAD  1 1369  1 1370
  B12-1  HEAD  1 1585  1 1586
  B16-1  HEAD  1 2368  1 2369
  B2-1  HEAD  1 2103  1 2104
  B22-1  HEAD  1 1719  1 1720
  B27  HEAD  1 1595  1 1596
  B29  HEAD  1 1850  1 1851
  KB1-1  HEAD  1 2875  1 2876
  KB4-3  HEAD  1 1408  1 1409
  NI1301-1  HEAD  1 1741  1 1742
  NI1302-1  HEAD  1 1726  1 1727
  NI1403-1  HEAD  1 2918  1 2919
  NI1405-1  HEAD  1 2645  1 2646
  NI1407-1  HEAD  1 1710  1 1711
  NI1408-1  HEAD  1 1567  1 1568
  NI1409-1  HEAD  1 2002  1 2003
  NI1410-1  HEAD  1 2013  1 2014
  NI1411-1  HEAD  1 1879  1 1880
  NI1412-1  HEAD  1 2908  1 2909
  NI1413-1  HEAD  1 3047  1 3048
  NI1501-1  HEAD  1 1444  1 1445
  NI1502-2  HEAD  1 1212  1 1213
  NI1503-2  HEAD  1 1336  1 1337
  NI1504-2  HEAD  1 1470  1 1471
  NI1505-1  HEAD  1 1462  1 1463
  NI1506-1  HEAD  1 1582  1 1583
  NI15-O1  HEAD  1 3013  1 3014
  NI15-O44  HEAD  1 2707  1 2708
  NI15-O46  HEAD  1 1833  1 1834
  NI15-O47  HEAD  1 1957  1 1958
  NI15-O48  HEAD  1 963  1 964
  NI1601-1  HEAD  1 2729  1 2730
  NI1602-1  HEAD  1 2522  1 2523
  NI1603-1  HEAD  1 2442  1 2443
  NI1605-1  HEAD  1 2922  1 2923
  NI1606-1  HEAD  1 2262  1 2263
  NI1607-1  HEAD  1 3016  1 3017
  NI1608-1  HEAD  1 3129  1 3130
  NI1609-2  HEAD  1 3138  1 3139
  NI1610-2  HEAD  1 3136  1 3137
  NI1611-1  HEAD  1 3145  1 3146
  NI1612-1  HEAD  1 2856  1 2857
  NI1613-1  HEAD  1 2444  1 2445
  NI1703-1  HEAD  1 3019  1 3020
  NI1704-1  HEAD  1 1068  1 1069
  NI1705-1  HEAD  1 1279  1 1280
  NI1712-1  HEAD  1 3156  1 3157
  NI1801-1  HEAD  1 1158  1 1159
  NI1802-1  HEAD  1 1164  1 1165
  NI1803-1  HEAD  1 1274  1 1275
  NI1804-1  HEAD  1 1398  1 1399
  B9-4  HEAD  2 357  2 358
  B10-4  HEAD  2 1369  2 1370
  B13-1  HEAD  2 1744  2 1745
  B14-1  HEAD  2 2023  2 2024
  B15-1  HEAD  2 1610  2 1611
  B20-1  HEAD  2 1464  2 1465
  B21-1  HEAD  2 1728  2 1729
  B2-2  HEAD  2 2103  2 2104
  B22-2  HEAD  2 1719  2 1720
  B26  HEAD  2 1746  2 1747
  B35  HEAD  2 2749  2 2750
  B36  HEAD  2 2894  2 2895
  B37  HEAD  2 2909  2 2910
  B8-1  HEAD  2 2408  2 2409
  KB4-4  HEAD  2 1408  2 1409
  NI1301-2  HEAD  2 1741  2 1742
  NI1302-2  HEAD  2 1726  2 1727
  NI1401-1  HEAD  2 1870  2 1871
  NI1402-1  HEAD  2 1590  2 1591
  NI1404-1  HEAD  2 1736  2 1737
  NI1407-2  HEAD  2 1710  2 1711
  NI1408-2  HEAD  2 1567  2 1568
  NI1409-2  HEAD  2 2002  2 2003
  NI1410-2  HEAD  2 2013  2 2014
  NI1411-2  HEAD  2 1879  2 1880
  NI1413-2  HEAD  2 3047  2 3048
  NI1501-2  HEAD  2 1444  2 1445
  NI1505-2  HEAD  2 1462  2 1463
  NI1506-2  HEAD  2 1582  2 1583
  NI1507-2  HEAD  2 1322  2 1323
  NI1601-2  HEAD  2 2729  2 2730
  NI1604-1  HEAD  2 2903  2 2904
  NI1606-2  HEAD  2 2262  2 2263
  NI1607-2  HEAD  2 3016  2 3017
  NI1608-2  HEAD  2 3129  2 3130
  NI1703-2  HEAD  2 3019  2 3020
  NI1706-1  HEAD  2 1668  2 1669
  NI1709-1  HEAD  2 2773  2 2774
  NI1801-3  HEAD  2 1158  2 1159
  NI1803-3  HEAD  2 1274  2 1275
  NI1804-3  HEAD  2 1398  2 1399
  B9-5  HEAD  3 357  3 358
  B10-5  HEAD  3 1369  3 1370
  B16-2  HEAD  3 2368  3 2369
  B19-4  HEAD  3 2926  3 2927
  B21-3  HEAD  3 1728  3 1729
  B22-4  HEAD  3 1719  3 1720
  B2-3  HEAD  3 2103  3 2104
  B30  HEAD  3 1437  3 1438
  B34  HEAD  3 2740  3 2741
  B4  HEAD  3 1021  3 1022
  B8-2  HEAD  3 2408  3 2409
  NI1301-3  HEAD  3 1741  3 1742
  NI1302-3  HEAD  3 1726  3 1727
  NI1401-2  HEAD  3 1870  3 1871
  NI1402-2  HEAD  3 1590  3 1591
  NI1403-2  HEAD  3 2918  3 2919
  NI1404-2  HEAD  3 1736  3 1737
  NI1405-2  HEAD  3 2645  3 2646
  NI1406-1  HEAD  3 1723  3 1724
  NI1407-3  HEAD  3 1710  3 1711
  NI1408-3  HEAD  3 1567  3 1568
  NI1409-3  HEAD  3 2002  3 2003
  NI1410-3  HEAD  3 2013  3 2014
  NI1411-3  HEAD  3 1879  3 1880
  NI1412-3  HEAD  3 2908  3 2909
  NI1413-3  HEAD  3 3047  3 3048
  NI1501-3  HEAD  3 1444  3 1445
  NI1502-3  HEAD  3 1212  3 1213
  NI1503-3  HEAD  3 1336  3 1337
  NI1504-3  HEAD  3 1470  3 1471
  NI1505-3  HEAD  3 1462  3 1463
  NI1506-3  HEAD  3 1582  3 1583
  NI1507-3  HEAD  3 1322  3 1323
  NI1601-3  HEAD  3 2729  3 2730
  NI1602-2  HEAD  3 2522  3 2523
  NI1603-2  HEAD  3 2442  3 2443
  NI1604-3  HEAD  3 2903  3 2904
  NI1605-3  HEAD  3 2922  3 2923
  NI1606-3  HEAD  3 2262  3 2263
  NI1607-3  HEAD  3 3016  3 3017
  NI1608-3  HEAD  3 3129  3 3130
  NI1609-3  HEAD  3 3138  3 3139
  NI1612-2  HEAD  3 2856  3 2857
  NI1701-1  HEAD  3 2714  3 2715
  NI1702-1  HEAD  3 2611  3 2612
  NI1704-2  HEAD  3 1068  3 1069
  NI1705-2  HEAD  3 1279  3 1280
  NI1706-2  HEAD  3 1668  3 1669
  NI1707-1  HEAD  3 1526  3 1527
  NI1708-1  HEAD  3 3038  3 3039
  NI1711-1  HEAD  3 3168  3 3169
END continuous  FILEOUT  head.obs.csv

