# File generated by Flopy version 3.3.5 on 11/03/2021 at 13:12:39.
BEGIN options
  DIGITS  10
  PRINT_INPUT
END options

BEGIN continuous  FILEOUT  sfr.obs.csv
  NI15-O44-STG  STAGE  107
  NI15-O46-STG  STAGE  141
  NI15-O47-STG  STAGE  156
  NI15-O48-STG  STAGE  195
  GAGE-1  INFLOW  234
END continuous  FILEOUT  sfr.obs.csv

