# File generated by Flopy version 3.3.5 on 11/04/2021 at 11:01:54.
BEGIN options
  PRINT_STAGE
  PRINT_FLOWS
  SAVE_FLOWS
  BUDGET  FILEOUT  experimental.sfr.bud
  OBS6  FILEIN  experimental.sfr.obs
  MAXIMUM_ITERATIONS  100
  UNIT_CONVERSION   86400.00000000
END options

BEGIN dimensions
  NREACHES  266
END dimensions

BEGIN packagedata
  1  1 2565       5.88000000       2.00000000       0.00100000     143.61000000       1.00000000      86.40000000  0.03  1       1.00000000  0
  2  1 2563       1.85000000       2.00000000       0.00100000     143.50000000       1.00000000      86.40000000  0.03  2       1.00000000  0
  3  1 2561       3.56000000       2.00000000       0.00100000     143.45000000       1.00000000      86.40000000  0.03  2       1.00000000  0
  4  1 2560       5.53000000       2.00000000       0.00100000     143.45000000       1.00000000      86.40000000  0.03  2       1.00000000  0
  5  1 2557       2.84000000       2.00000000       0.00100000     143.45000000       1.00000000      86.40000000  0.03  2       1.00000000  0
  6  1 2485       2.77000000       2.00000000       0.00100000     143.45000000       1.00000000      86.40000000  0.03  2       1.00000000  0
  7  1 2484       6.33000000       2.00000000       0.00100000     143.42000000       1.00000000      86.40000000  0.03  2       1.00000000  0
  8  1 2481       0.35000000       2.00000000       0.00100000     143.33000000       1.00000000      86.40000000  0.03  2       1.00000000  0
  9  1 2479       4.99000000       2.00000000       0.00100000     143.33000000       1.00000000      86.40000000  0.03  2       1.00000000  0
  10  1 2478       5.66000000       2.00000000       0.00100000     143.33000000       1.00000000      86.40000000  0.03  2       1.00000000  0
  11  1 2399       2.15000000       2.00000000       0.00100000     143.33000000       1.00000000      86.40000000  0.03  2       1.00000000  0
  12  1 2396       3.38000000       2.00000000       0.00100000     143.33000000       1.00000000      86.40000000  0.03  2       1.00000000  0
  13  1 2394       5.78000000       2.00000000       0.00100000     143.28000000       1.00000000      86.40000000  0.03  2       1.00000000  0
  14  1 2393       0.57000000       2.00000000       0.00100000     143.25000000       1.00000000      86.40000000  0.03  2       1.00000000  0
  15  1 2304       5.31000000       2.00000000       0.00100000     143.14000000       1.00000000      86.40000000  0.03  2       1.00000000  0
  16  1 2301       5.27000000       2.00000000       0.00100000     143.14000000       1.00000000      86.40000000  0.03  2       1.00000000  0
  17  1 2300       0.38000000       2.00000000       0.00100000     143.14000000       1.00000000      86.40000000  0.03  2       1.00000000  0
  18  1 2389       4.70000000       2.00000000       0.00100000     143.14000000       1.00000000      86.40000000  0.03  2       1.00000000  0
  19  1 2386       5.04000000       2.00000000       0.00100000     143.07000000       1.00000000      86.40000000  0.03  2       1.00000000  0
  20  1 2385       1.61000000       2.00000000       0.00100000     143.07000000       1.00000000      86.40000000  0.03  2       1.00000000  0
  21  1 2296       3.49000000       2.00000000       0.00100000     143.07000000       1.00000000      86.40000000  0.03  2       1.00000000  0
  22  1 2293       5.17000000       2.00000000       0.00100000     143.07000000       1.00000000      86.40000000  0.03  2       1.00000000  0
  23  1 2292       5.12000000       2.00000000       0.00100000     143.07000000       1.00000000      86.40000000  0.03  2       1.00000000  0
  24  1 2289       5.27000000       2.00000000       0.00100000     143.07000000       1.00000000      86.40000000  0.03  2       1.00000000  0
  25  1 2288       0.89000000       2.00000000       0.00100000     143.07000000       1.00000000      86.40000000  0.03  2       1.00000000  0
  26  1 2286       4.52000000       2.00000000       0.00100000     143.03000000       1.00000000      86.40000000  0.03  2       1.00000000  0
  27  1 2283       5.15000000       2.00000000       0.00100000     143.03000000       1.00000000      86.40000000  0.03  2       1.00000000  0
  28  1 2282       5.08000000       2.00000000       0.00100000     143.03000000       1.00000000      86.40000000  0.03  2       1.00000000  0
  29  1 2279       5.12000000       2.00000000       0.00100000     143.03000000       1.00000000      86.40000000  0.03  2       1.00000000  0
  30  1 2278       5.19000000       2.00000000       0.00100000     143.03000000       1.00000000      86.40000000  0.03  2       1.00000000  0
  31  1 2275       1.00000000       2.00000000       0.00100000     143.03000000       1.00000000      86.40000000  0.03  2       1.00000000  0
  32  1 2277       4.23000000       2.00000000       0.00100000     143.03000000       1.00000000      86.40000000  0.03  2       1.00000000  0
  33  1 2276       5.26000000       2.00000000       0.00100000     143.03000000       1.00000000      86.40000000  0.03  2       1.00000000  0
  34  1 2273       5.16000000       2.00000000       0.00100000     143.03000000       1.00000000      86.40000000  0.03  2       1.00000000  0
  35  1 2272       2.63000000       2.00000000       0.00100000     143.03000000       1.00000000      86.40000000  0.03  2       1.00000000  0
  36  1 2376       2.56000000       2.00000000       0.00100000     143.03000000       1.00000000      86.40000000  0.03  2       1.00000000  0
  37  1 2373       5.10000000       2.00000000       0.00100000     143.03000000       1.00000000      86.40000000  0.03  2       1.00000000  0
  38  1 2372       5.10000000       2.00000000       0.00100000     143.03000000       1.00000000      86.40000000  0.03  2       1.00000000  0
  39  1 2369       5.22000000       2.00000000       0.00100000     143.01000000       1.00000000      86.40000000  0.03  2       1.00000000  0
  40  1 2368       4.67000000       2.00000000       0.00100000     142.55000000       1.00000000      86.40000000  0.03  2       1.00000000  0
  41  1 2370       0.48000000       2.00000000       0.00100000     142.55000000       1.00000000      86.40000000  0.03  2       1.00000000  0
  42  1 2367       5.22000000       2.00000000       0.00100000     142.05000000       1.00000000      86.40000000  0.03  2       1.00000000  0
  43  1 2366       5.20000000       2.00000000       0.00100000     141.75000000       1.00000000      86.40000000  0.03  2       1.00000000  0
  44  1 2363       5.07000000       2.00000000       0.00100000     141.22000000       1.00000000      86.40000000  0.03  2       1.00000000  0
  45  1 2362       5.36000000       2.00000000       0.00100000     140.98000000       1.00000000      86.40000000  0.03  2       1.00000000  0
  46  1 2462       0.03000000       2.00000000       0.00100000     140.62000000       1.00000000      86.40000000  0.03  2       1.00000000  0
  47  1 2459       6.19000000       2.00000000       0.00100000     140.43000000       1.00000000      86.40000000  0.03  2       1.00000000  0
  48  1 2458       2.10000000       2.00000000       0.00100000     140.43000000       1.00000000      86.40000000  0.03  2       1.00000000  0
  49  1 2460       4.13000000       2.00000000       0.00100000     140.05000000       1.00000000      86.40000000  0.03  2       1.00000000  0
  50  1 2457       4.08000000       2.00000000       0.00100000     140.05000000       1.00000000      86.40000000  0.03  2       1.00000000  0
  51  1 2538       2.39000000       2.00000000       0.00100000     139.72000000       1.00000000      86.40000000  0.03  2       1.00000000  0
  52  1 2537       5.69000000       2.00000000       0.00100000     139.72000000       1.00000000      86.40000000  0.03  2       1.00000000  0
  53  1 2539       1.10000000       2.00000000       0.00100000     139.56000000       1.00000000      86.40000000  0.03  2       1.00000000  0
  54  1 2536       5.13000000       2.00000000       0.00100000     139.54000000       1.00000000      86.40000000  0.03  2       1.00000000  0
  55  1 2614       3.68000000       2.00000000       0.00100000     139.39000000       1.00000000      86.40000000  0.03  2       1.00000000  0
  56  1 2613       2.52000000       2.00000000       0.00100000     139.36000000       1.00000000      86.40000000  0.03  2       1.00000000  0
  57  1 2615       5.53000000       2.00000000       0.00100000     139.20000000       1.00000000      86.40000000  0.03  2       1.00000000  0
  58  1 2682       5.12000000       2.00000000       0.00100000     139.02000000       1.00000000      86.40000000  0.03  2       1.00000000  0
  59  1 2684       3.12000000       2.00000000       0.00100000     138.96000000       1.00000000      86.40000000  0.03  2       1.00000000  0
  60  1 2681       2.59000000       2.00000000       0.00100000     138.89000000       1.00000000      86.40000000  0.03  2       1.00000000  0
  61  1 2762       4.96000000       2.00000000       0.00100000     138.89000000       1.00000000      86.40000000  0.03  2       1.00000000  0
  62  1 2761       2.11000000       2.00000000       0.00100000     138.84000000       1.00000000      86.40000000  0.03  2       1.00000000  0
  63  1 2763       3.63000000       2.00000000       0.00100000     138.84000000       1.00000000      86.40000000  0.03  2       1.00000000  0
  64  1 2760       5.66000000       2.00000000       0.00100000     138.65000000       1.00000000      86.40000000  0.03  2       1.00000000  0
  65  1 2759       5.11000000       2.00000000       0.00100000     138.58000000       1.00000000      86.40000000  0.03  2       1.00000000  0
  66  1 2756       5.23000000       2.00000000       0.00100000     138.49000000       1.00000000      86.40000000  0.03  2       1.00000000  0
  67  1 2755       5.19000000       2.00000000       0.00100000     138.33000000       1.00000000      86.40000000  0.03  2       1.00000000  0
  68  1 2752       5.27000000       2.00000000       0.00100000     138.33000000       1.00000000      86.40000000  0.03  2       1.00000000  0
  69  1 2751       5.36000000       2.00000000       0.00100000     138.33000000       1.00000000      86.40000000  0.03  2       1.00000000  0
  70  1 2748       0.22000000       2.00000000       0.00100000     138.33000000       1.00000000      86.40000000  0.03  2       1.00000000  0
  71  1 2831       5.36000000       2.00000000       0.00100000     138.33000000       1.00000000      86.40000000  0.03  2       1.00000000  0
  72  1 2830       5.37000000       2.00000000       0.00100000     138.33000000       1.00000000      86.40000000  0.03  2       1.00000000  0
  73  1 2827       1.95000000       2.00000000       0.00100000     138.33000000       1.00000000      86.40000000  0.03  2       1.00000000  0
  74  1 2829       3.39000000       2.00000000       0.00100000     138.33000000       1.00000000      86.40000000  0.03  2       1.00000000  0
  75  1 2828       5.27000000       2.00000000       0.00100000     138.33000000       1.00000000      86.40000000  0.03  2       1.00000000  0
  76  1 2825       5.27000000       2.00000000       0.00100000     138.33000000       1.00000000      86.40000000  0.03  2       1.00000000  0
  77  1 2824       1.86000000       2.00000000       0.00100000     138.33000000       1.00000000      86.40000000  0.03  2       1.00000000  0
  78  1 2895       3.41000000       2.00000000       0.00100000     138.33000000       1.00000000      86.40000000  0.03  2       1.00000000  0
  79  1 2892       5.21000000       2.00000000       0.00100000     138.33000000       1.00000000      86.40000000  0.03  2       1.00000000  0
  80  1 2891       5.37000000       2.00000000       0.00100000     138.33000000       1.00000000      86.40000000  0.03  2       1.00000000  0
  81  1 2888       5.05000000       2.00000000       0.00100000     138.33000000       1.00000000      86.40000000  0.03  2       1.00000000  0
  82  1 2887       6.74000000       2.00000000       0.00100000     138.33000000       1.00000000      86.40000000  0.03  2       1.00000000  0
  83  1 2884       1.10000000       2.00000000       0.00100000     138.33000000       1.00000000      86.40000000  0.03  2       1.00000000  0
  84  1 2819       5.97000000       2.00000000       0.00100000     138.33000000       1.00000000      86.40000000  0.03  2       1.00000000  0
  85  1 2818       1.10000000       2.00000000       0.00100000     138.24000000       1.00000000      86.40000000  0.03  2       1.00000000  0
  86  1 2816       5.97000000       2.00000000       0.00100000     138.24000000       1.00000000      86.40000000  0.03  2       1.00000000  0
  87  1 2813       1.10000000       2.00000000       0.00100000     137.98000000       1.00000000      86.40000000  0.03  2       1.00000000  0
  88  1 2739       5.97000000       2.00000000       0.00100000     137.98000000       1.00000000      86.40000000  0.03  2       1.00000000  0
  89  1 2738       1.10000000       2.00000000       0.00100000     137.56000000       1.00000000      86.40000000  0.03  2       1.00000000  0
  90  1 2736       5.97000000       2.00000000       0.00100000     137.56000000       1.00000000      86.40000000  0.03  2       1.00000000  0
  91  1 2733       1.10000000       2.00000000       0.00100000     137.21000000       1.00000000      86.40000000  0.03  2       1.00000000  0
  92  1 2667       5.97000000       2.00000000       0.00100000     137.21000000       1.00000000      86.40000000  0.03  2       1.00000000  0
  93  1 2666       1.10000000       2.00000000       0.00100000     137.20000000       1.00000000      86.40000000  0.03  2       1.00000000  0
  94  1 2664       6.36000000       2.00000000       0.00100000     137.11000000       1.00000000      86.40000000  0.03  2       1.00000000  0
  95  1 2600       2.44000000       2.00000000       0.00100000     136.90000000       1.00000000      86.40000000  0.03  2       1.00000000  0
  96  1 2597       3.73000000       2.00000000       0.00100000     136.63000000       1.00000000      86.40000000  0.03  2       1.00000000  0
  97  1 2595       5.68000000       2.00000000       0.00100000     136.63000000       1.00000000      86.40000000  0.03  2       1.00000000  0
  98  1 2520       1.72000000       2.00000000       0.00100000     136.63000000       1.00000000      86.40000000  0.03  2       1.00000000  0
  99  1 2519       4.65000000       2.00000000       0.00100000     136.63000000       1.00000000      86.40000000  0.03  2       1.00000000  0
  100  1 2517       5.69000000       2.00000000       0.00100000     136.63000000       1.00000000      86.40000000  0.03  2       1.00000000  0
  101  1 2436       6.10000000       2.00000000       0.00100000     136.63000000       1.00000000      86.40000000  0.03  2       1.00000000  0
  102  1 2434       3.66000000       2.00000000       0.00100000     136.63000000       1.00000000      86.40000000  0.03  2       1.00000000  0
  103  1 2435       7.31000000       2.00000000       0.00100000     136.63000000       1.00000000      86.40000000  0.03  2       1.00000000  0
  104  1 2438       1.95000000       2.00000000       0.00100000     136.63000000       1.00000000      86.40000000  0.03  2       1.00000000  0
  105  1 2344       5.27000000       2.00000000       0.00100000     136.63000000       1.00000000      86.40000000  0.03  2       1.00000000  0
  106  1 2342       3.56000000       2.00000000       0.00100000     136.63000000       1.00000000      86.40000000  0.03  2       1.00000000  0
  107  1 2343       2.65000000       2.00000000       0.00100000     136.63000000       1.00000000      86.40000000  0.03  2       1.00000000  0
  108  1 2251       5.88000000       2.00000000       0.00100000     136.60000000       1.00000000      86.40000000  0.03  2       1.00000000  0
  109  1 2249       5.00000000       2.00000000       0.00100000     136.49000000       1.00000000      86.40000000  0.03  2       1.00000000  0
  110  1 2183       5.41000000       2.00000000       0.00100000     136.36000000       1.00000000      86.40000000  0.03  2       1.00000000  0
  111  1 2181       5.00000000       2.00000000       0.00100000     136.30000000       1.00000000      86.40000000  0.03  2       1.00000000  0
  112  1 2114       5.05000000       2.00000000       0.00100000     136.30000000       1.00000000      86.40000000  0.03  2       1.00000000  0
  113  1 2112       5.02000000       2.00000000       0.00100000     136.30000000       1.00000000      86.40000000  0.03  2       1.00000000  0
  114  1 2044       2.49000000       2.00000000       0.00100000     136.30000000       1.00000000      86.40000000  0.03  2       1.00000000  0
  115  1 2043       3.16000000       2.00000000       0.00100000     136.30000000       1.00000000      86.40000000  0.03  2       1.00000000  0
  116  1 2041       5.91000000       2.00000000       0.00100000     136.28000000       1.00000000      86.40000000  0.03  2       1.00000000  0
  117  1 1972       0.86000000       2.00000000       0.00100000     136.28000000       1.00000000      86.40000000  0.03  2       1.00000000  0
  118  1 1969       5.46000000       2.00000000       0.00100000     136.05000000       1.00000000      86.40000000  0.03  2       1.00000000  0
  119  1 1967       2.94000000       2.00000000       0.00100000     136.05000000       1.00000000      86.40000000  0.03  2       1.00000000  0
  120  1 1966       3.27000000       2.00000000       0.00100000     135.98000000       1.00000000      86.40000000  0.03  2       1.00000000  0
  121  1 1893       4.95000000       2.00000000       0.00100000     135.90000000       1.00000000      86.40000000  0.03  2       1.00000000  0
  122  1 1894       1.16000000       2.00000000       0.00100000     135.90000000       1.00000000      86.40000000  0.03  2       1.00000000  0
  123  1 1892       5.14000000       2.00000000       0.00100000     135.90000000       1.00000000      86.40000000  0.03  2       1.00000000  0
  124  1 1895       5.14000000       2.00000000       0.00100000     135.89000000       1.00000000      86.40000000  0.03  2       1.00000000  0
  125  1 1896       4.28000000       2.00000000       0.00100000     135.89000000       1.00000000      86.40000000  0.03  2       1.00000000  0
  126  1 1819       1.19000000       2.00000000       0.00100000     135.89000000       1.00000000      86.40000000  0.03  2       1.00000000  0
  127  1 1822       5.35000000       2.00000000       0.00100000     135.88000000       1.00000000      86.40000000  0.03  2       1.00000000  0
  128  1 1820       5.25000000       2.00000000       0.00100000     135.64000000       1.00000000      86.40000000  0.03  2       1.00000000  0
  129  1 1745       6.67000000       2.00000000       0.00100000     135.64000000       1.00000000      86.40000000  0.03  2       1.00000000  0
  130  1 1742       5.14000000       2.00000000       0.00100000     135.56000000       1.00000000      86.40000000  0.03  2       1.00000000  0
  131  1 1741       5.36000000       2.00000000       0.00100000     135.56000000       1.00000000      86.40000000  0.03  2       1.00000000  0
  132  1 1738       5.27000000       2.00000000       0.00100000     135.47000000       1.00000000      86.40000000  0.03  2       1.00000000  0
  133  1 1737       2.51000000       2.00000000       0.00100000     135.47000000       1.00000000      86.40000000  0.03  2       1.00000000  0
  134  1 1735       4.98000000       2.00000000       0.00100000     135.44000000       1.00000000      86.40000000  0.03  2       1.00000000  0
  135  1 1732       1.33000000       2.00000000       0.00100000     135.44000000       1.00000000      86.40000000  0.03  2       1.00000000  0
  136  1 1653       5.75000000       2.00000000       0.00100000     135.38000000       1.00000000      86.40000000  0.03  2       1.00000000  0
  137  1 1651       6.10000000       2.00000000       0.00100000     135.36000000       1.00000000      86.40000000  0.03  2       1.00000000  0
  138  1 1654       5.04000000       2.00000000       0.00100000     135.36000000       1.00000000      86.40000000  0.03  2       1.00000000  0
  139  1 1655       5.64000000       2.00000000       0.00100000     135.32000000       1.00000000      86.40000000  0.03  2       1.00000000  0
  140  1 1658       1.58000000       2.00000000       0.00100000     135.32000000       1.00000000      86.40000000  0.03  2       1.00000000  0
  141  1 1548       5.23000000       2.00000000       0.00100000     135.32000000       1.00000000      86.40000000  0.03  2       1.00000000  0
  142  1 1546       3.31000000       2.00000000       0.00100000     135.32000000       1.00000000      86.40000000  0.03  2       1.00000000  0
  143  1 1543       4.32000000       2.00000000       0.00100000     135.32000000       1.00000000      86.40000000  0.03  2       1.00000000  0
  144  1 1453       1.98000000       2.00000000       0.00100000     135.32000000       1.00000000      86.40000000  0.03  2       1.00000000  0
  145  1 1452       5.29000000       2.00000000       0.00100000     135.32000000       1.00000000      86.40000000  0.03  2       1.00000000  0
  146  1 1449       5.29000000       2.00000000       0.00100000     135.32000000       1.00000000      86.40000000  0.03  2       1.00000000  0
  147  1 1448       1.75000000       2.00000000       0.00100000     135.32000000       1.00000000      86.40000000  0.03  2       1.00000000  0
  148  1 1538       3.87000000       2.00000000       0.00100000     135.28000000       1.00000000      86.40000000  0.03  2       1.00000000  0
  149  1 1535       5.61000000       2.00000000       0.00100000     135.28000000       1.00000000      86.40000000  0.03  2       1.00000000  0
  150  1 1537       5.53000000       2.00000000       0.00100000     135.26000000       1.00000000      86.40000000  0.03  2       1.00000000  0
  151  1 1647       5.27000000       2.00000000       0.00100000     135.26000000       1.00000000      86.40000000  0.03  2       1.00000000  0
  152  1 1649       5.39000000       2.00000000       0.00100000     135.26000000       1.00000000      86.40000000  0.03  2       1.00000000  0
  153  1 1648       5.19000000       2.00000000       0.00100000     135.26000000       1.00000000      86.40000000  0.03  2       1.00000000  0
  154  1 1645       5.44000000       2.00000000       0.00100000     135.21000000       1.00000000      86.40000000  0.03  2       1.00000000  0
  155  1 1644       3.75000000       2.00000000       0.00100000     135.13000000       1.00000000      86.40000000  0.03  2       1.00000000  0
  156  1 1642       2.44000000       2.00000000       0.00100000     135.06000000       1.00000000      86.40000000  0.03  2       1.00000000  0
  157  1 1639       5.40000000       2.00000000       0.00100000     135.06000000       1.00000000      86.40000000  0.03  2       1.00000000  0
  158  1 1638       2.32000000       2.00000000       0.00100000     135.06000000       1.00000000      86.40000000  0.03  2       1.00000000  0
  159  1 1640       3.40000000       2.00000000       0.00100000     135.06000000       1.00000000      86.40000000  0.03  2       1.00000000  0
  160  1 1637       5.27000000       2.00000000       0.00100000     135.06000000       1.00000000      86.40000000  0.03  2       1.00000000  0
  161  1 1636       5.05000000       2.00000000       0.00100000     135.06000000       1.00000000      86.40000000  0.03  2       1.00000000  0
  162  1 1633       5.01000000       2.00000000       0.00100000     135.06000000       1.00000000      86.40000000  0.03  2       1.00000000  0
  163  1 1632       5.04000000       2.00000000       0.00100000     135.05000000       1.00000000      86.40000000  0.03  2       1.00000000  0
  164  1 1629       5.06000000       2.00000000       0.00100000     135.05000000       1.00000000      86.40000000  0.03  2       1.00000000  0
  165  1 1628       5.01000000       2.00000000       0.00100000     135.05000000       1.00000000      86.40000000  0.03  2       1.00000000  0
  166  1 1625       5.04000000       2.00000000       0.00100000     135.00000000       1.00000000      86.40000000  0.03  2       1.00000000  0
  167  1 1624       5.09000000       2.00000000       0.00100000     134.97000000       1.00000000      86.40000000  0.03  2       1.00000000  0
  168  1 1621       5.10000000       2.00000000       0.00100000     134.97000000       1.00000000      86.40000000  0.03  2       1.00000000  0
  169  1 1620       5.21000000       2.00000000       0.00100000     134.97000000       1.00000000      86.40000000  0.03  2       1.00000000  0
  170  1 1617       2.82000000       2.00000000       0.00100000     134.97000000       1.00000000      86.40000000  0.03  2       1.00000000  0
  171  1 1615       2.67000000       2.00000000       0.00100000     134.90000000       1.00000000      86.40000000  0.03  2       1.00000000  0
  172  1 1614       5.48000000       2.00000000       0.00100000     134.90000000       1.00000000      86.40000000  0.03  2       1.00000000  0
  173  1 1611       3.41000000       2.00000000       0.00100000     134.90000000       1.00000000      86.40000000  0.03  2       1.00000000  0
  174  1 1525       2.35000000       2.00000000       0.00100000     134.89000000       1.00000000      86.40000000  0.03  2       1.00000000  0
  175  1 1524       5.59000000       2.00000000       0.00100000     134.77000000       1.00000000      86.40000000  0.03  2       1.00000000  0
  176  1 1521       3.34000000       2.00000000       0.00100000     134.77000000       1.00000000      86.40000000  0.03  2       1.00000000  0
  177  1 1519       2.48000000       2.00000000       0.00100000     134.77000000       1.00000000      86.40000000  0.03  2       1.00000000  0
  178  1 1518       5.24000000       2.00000000       0.00100000     134.77000000       1.00000000      86.40000000  0.03  2       1.00000000  0
  179  1 1515       3.12000000       2.00000000       0.00100000     134.77000000       1.00000000      86.40000000  0.03  2       1.00000000  0
  180  1 1431       5.00000000       2.00000000       0.00100000     134.77000000       1.00000000      86.40000000  0.03  2       1.00000000  0
  181  1 1429       4.48000000       2.00000000       0.00100000     134.77000000       1.00000000      86.40000000  0.03  2       1.00000000  0
  182  1 1432       2.91000000       2.00000000       0.00100000     134.73000000       1.00000000      86.40000000  0.03  2       1.00000000  0
  183  1 1353       5.25000000       2.00000000       0.00100000     134.72000000       1.00000000      86.40000000  0.03  2       1.00000000  0
  184  1 1351       5.11000000       2.00000000       0.00100000     134.72000000       1.00000000      86.40000000  0.03  2       1.00000000  0
  185  1 1274       5.22000000       2.00000000       0.00100000     134.72000000       1.00000000      86.40000000  0.03  2       1.00000000  0
  186  1 1272       5.21000000       2.00000000       0.00100000     134.71000000       1.00000000      86.40000000  0.03  2       1.00000000  0
  187  1 1194       5.37000000       2.00000000       0.00100000     134.38000000       1.00000000      86.40000000  0.03  2       1.00000000  0
  188  1 1192       4.94000000       2.00000000       0.00100000     134.27000000       1.00000000      86.40000000  0.03  2       1.00000000  0
  189  1 1189       0.71000000       2.00000000       0.00100000     134.27000000       1.00000000      86.40000000  0.03  2       1.00000000  0
  190  1 1111       5.74000000       2.00000000       0.00100000     134.17000000       1.00000000      86.40000000  0.03  2       1.00000000  0
  191  1 1109       3.64000000       2.00000000       0.00100000     134.17000000       1.00000000      86.40000000  0.03  2       1.00000000  0
  192  1 1108       2.09000000       2.00000000       0.00100000     134.17000000       1.00000000      86.40000000  0.03  2       1.00000000  0
  193  1 1030       5.67000000       2.00000000       0.00100000     134.17000000       1.00000000      86.40000000  0.03  2       1.00000000  0
  194  1 1028       5.15000000       2.00000000       0.00100000     134.17000000       1.00000000      86.40000000  0.03  2       1.00000000  0
  195  1 950       1.08000000       2.00000000       0.00100000     134.17000000       1.00000000      86.40000000  0.03  2       1.00000000  0
  196  1 947       4.71000000       2.00000000       0.00100000     134.07000000       1.00000000      86.40000000  0.03  2       1.00000000  0
  197  1 945       3.16000000       2.00000000       0.00100000     134.07000000       1.00000000      86.40000000  0.03  2       1.00000000  0
  198  1 944       4.91000000       2.00000000       0.00100000     134.07000000       1.00000000      86.40000000  0.03  2       1.00000000  0
  199  1 866       2.05000000       2.00000000       0.00100000     134.07000000       1.00000000      86.40000000  0.03  2       1.00000000  0
  200  1 863       4.65000000       2.00000000       0.00100000     134.07000000       1.00000000      86.40000000  0.03  2       1.00000000  0
  201  1 861       3.52000000       2.00000000       0.00100000     134.07000000       1.00000000      86.40000000  0.03  2       1.00000000  0
  202  1 860       3.02000000       2.00000000       0.00100000     134.07000000       1.00000000      86.40000000  0.03  2       1.00000000  0
  203  1 782       4.76000000       2.00000000       0.00100000     134.07000000       1.00000000      86.40000000  0.03  2       1.00000000  0
  204  1 779       1.46000000       2.00000000       0.00100000     134.06000000       1.00000000      86.40000000  0.03  2       1.00000000  0
  205  1 777       6.54000000       2.00000000       0.00100000     134.06000000       1.00000000      86.40000000  0.03  2       1.00000000  0