# File generated by Flopy version 3.3.5 on 11/06/2021 at 11:40:47.
BEGIN options
  BUDGET  FILEOUT  experimental.cbb
  HEAD  FILEOUT  experimental.hds
  HEAD  PRINT_FORMAT  COLUMNS  10  WIDTH  15  DIGITS  6  GENERAL
END options

BEGIN period  1
  SAVE  HEAD  ALL
  SAVE  BUDGET  ALL
  PRINT  HEAD  FIRST
  PRINT  HEAD  LAST
  PRINT  BUDGET  LAST
END period  1

