# File generated by Flopy version 3.3.5 on 11/03/2021 at 13:12:39.
BEGIN options
  SAVE_FLOWS
END options

BEGIN packages
  DISV6  .\experimental.disv  disv
  IC6  .\experimental.ic  ic
  NPF6  .\experimental.npf  npf
  OC6  .\experimental.oc  oc
  STO6  .\experimental.sto  sto
  GHB6  .\experimental.ghb  ghb
  SFR6  .\experimental.sfr  sfr
  OBS6  .\experimental.obs  gwf_obs
  RCH6  .\experimental.rch  rch
END packages

