# File generated by Flopy version 3.3.5 on 11/03/2021 at 09:22:11.
BEGIN options
  BOUNDNAMES
  PRINT_INPUT
  PRINT_FLOWS
  SAVE_FLOWS
END options

BEGIN dimensions
  MAXBOUND  180
END dimensions

BEGIN period  1
  1 830     142.50000000      86.40000000  red
  1 913     142.50000000      86.40000000  red
  1 996     142.50000000      86.40000000  red
  1 1076     142.50000000      86.40000000  red
  1 1156     142.50000000      86.40000000  red
  1 1239     142.50000000      86.40000000  red
  1 1319     142.50000000      86.40000000  red
  1 1398     142.50000000      86.40000000  red
  1 1485     142.50000000      86.40000000  red
  1 1580     142.50000000      86.40000000  red
  1 1692     142.50000000      86.40000000  red
  1 1776     142.50000000      86.40000000  red
  1 1853     142.50000000      86.40000000  red
  1 1929     142.50000000      86.40000000  red
  1 2004     142.50000000      86.40000000  red
  1 2075     142.50000000      86.40000000  red
  1 2145     142.50000000      86.40000000  red
  1 2214     142.50000000      86.40000000  red
  1 2309     142.50000000      86.40000000  red
  1 2403     142.50000000      86.40000000  red
  1 2487     142.50000000      86.40000000  red
  1 2564     142.50000000      86.40000000  red
  1 2565     142.50000000      86.40000000  red
  1 2635     142.50000000      86.40000000  red
  1 2704     142.50000000      86.40000000  red
  1 2784     142.50000000      86.40000000  red
  1 428     143.00000000      86.40000000  orangered
  1 504     143.00000000      86.40000000  orangered
  1 584     143.00000000      86.40000000  orangered
  1 665     143.00000000      86.40000000  orangered
  1 747     143.00000000      86.40000000  orangered
  1 312     137.50000000      86.40000000  orange
  1 313     137.50000000      86.40000000  orange
  1 314     137.50000000      86.40000000  orange
  1 315     137.50000000      86.40000000  orange
  1 316     137.50000000      86.40000000  orange
  1 317     137.50000000      86.40000000  orange
  1 318     137.50000000      86.40000000  orange
  1 319     137.50000000      86.40000000  orange
  1 320     137.50000000      86.40000000  orange
  1 321     137.50000000      86.40000000  orange
  1 322     137.50000000      86.40000000  orange
  1 323     137.50000000      86.40000000  orange
  1 324     137.50000000      86.40000000  orange
  1 325     137.50000000      86.40000000  orange
  1 326     137.50000000      86.40000000  orange
  1 327     137.50000000      86.40000000  orange
  1 328     137.50000000      86.40000000  orange
  1 329     137.50000000      86.40000000  orange
  1 330     137.50000000      86.40000000  orange
  1 331     137.50000000      86.40000000  orange
  1 332     137.50000000      86.40000000  orange
  1 333     137.50000000      86.40000000  orange
  1 334     137.50000000      86.40000000  orange
  1 335     137.69389343      86.40000000  orange
  1 336     137.91209412      86.40000000  orange
  1 337     137.98829651      86.40000000  orange
  1 338     137.97909546      86.40000000  orange
  1 339     137.99470520      86.40000000  orange
  1 340     138.17030334      86.40000000  orange
  1 341     138.33149719      86.40000000  orange
  1 342     138.30830383      86.40000000  orange
  1 343     138.45790100      86.40000000  orange
  1 344     138.63549805      86.40000000  orange
  1 345     138.63079834      86.40000000  orange
  1 346     138.47880554      86.40000000  orange
  1 347     138.82800293      86.40000000  orange
  1 51     135.50000000      86.40000000  gold
  1 84     135.50000000      86.40000000  gold
  1 116     135.50000000      86.40000000  gold
  1 150     135.50000000      86.40000000  gold
  1 186     135.50000000      86.40000000  gold
  1 224     135.50000000      86.40000000  gold
  1 264     135.50000000      86.40000000  gold
  1 1     134.50000000      86.40000000  yellowgreen
  1 2     134.50000000      86.40000000  yellowgreen
  1 3     134.50000000      86.40000000  yellowgreen
  1 4     134.50000000      86.40000000  yellowgreen
  1 5     134.50000000      86.40000000  yellowgreen
  1 6     134.50000000      86.40000000  yellowgreen
  1 9     134.50000000      86.40000000  yellowgreen
  1 10     134.50000000      86.40000000  yellowgreen
  1 11     134.50000000      86.40000000  yellowgreen
  1 12     134.50000000      86.40000000  yellowgreen
  1 13     134.50000000      86.40000000  yellowgreen
  1 14     134.50000000      86.40000000  yellowgreen
  1 15     134.50000000      86.40000000  yellowgreen
  1 16     134.50000000      86.40000000  yellowgreen
  1 17     134.50000000      86.40000000  yellowgreen
  1 18     134.50000000      86.40000000  yellowgreen
  1 19     134.50000000      86.40000000  yellowgreen
  1 20     134.50000000      86.40000000  yellowgreen
  1 21     134.50000000      86.40000000  yellowgreen
  1 22     134.50000000      86.40000000  yellowgreen
  1 23     134.50000000      86.40000000  yellowgreen
  1 52     133.60000000      86.40000000  limegreen
  1 85     133.60000000      86.40000000  limegreen
  1 117     133.60000000      86.40000000  limegreen
  1 151     133.60000000      86.40000000  limegreen
  1 187     133.60000000      86.40000000  limegreen
  1 265     133.20000000      86.40000000  aqua
  1 348     133.20000000      86.40000000  aqua
  1 429     133.20000000      86.40000000  aqua
  1 505     133.20000000      86.40000000  aqua
  1 585     133.20000000      86.40000000  aqua
  1 666     133.20000000      86.40000000  aqua
  1 748     133.20000000      86.40000000  aqua
  1 831     133.20000000      86.40000000  aqua
  1 914     133.20000000      86.40000000  aqua
  1 997     133.20000000      86.40000000  aqua
  1 1077     133.20000000      86.40000000  aqua
  1 1157     133.20000000      86.40000000  aqua
  1 1240     133.20000000      86.40000000  aqua
  1 1399     133.20000000      86.40000000  darkturquoise
  1 1486     133.20000000      86.40000000  darkturquoise
  1 1581     133.20000000      86.40000000  darkturquoise
  1 1693     133.20000000      86.40000000  darkturquoise
  1 1777     133.20000000      86.40000000  darkturquoise
  1 1854     133.20000000      86.40000000  darkturquoise
  1 1930     133.20000000      86.40000000  darkturquoise
  1 2005     133.20000000      86.40000000  darkturquoise
  1 2076     133.20000000      86.40000000  darkturquoise
  1 2146     133.20000000      86.40000000  darkturquoise
  1 2215     133.20000000      86.40000000  darkturquoise
  1 2310     133.20000000      86.40000000  darkturquoise
  1 2404     133.20000000      86.40000000  darkturquoise
  1 2488     133.20000000      86.40000000  darkturquoise
  1 2566     133.20000000      86.40000000  darkturquoise
  1 2636     133.20000000      86.40000000  darkturquoise
  1 2705     133.20000000      86.40000000  darkturquoise
  1 2785     133.20000000      86.40000000  darkturquoise
  1 2856     133.20000000      86.40000000  darkturquoise
  1 2921     133.20000000      86.40000000  darkturquoise
  1 2971     133.20000000      86.40000000  darkturquoise
  1 3018     133.20000000      86.40000000  darkturquoise
  1 3061     133.46200562      86.40000000  darkturquoise
  1 3097     134.63389587      86.40000000  darkturquoise
  1 3126     136.71189880      86.40000000  royalblue
  1 3127     137.49569702      86.40000000  royalblue
  1 3128     138.31350708      86.40000000  royalblue
  1 3129     139.24940491      86.40000000  royalblue
  1 3130     139.83569336      86.40000000  royalblue
  1 3131     140.72810364      86.40000000  royalblue
  1 3132     141.18879700      86.40000000  royalblue
  1 3133     141.60980225      86.40000000  royalblue
  1 3134     141.91090393      86.40000000  royalblue
  1 3135     142.14219666      86.40000000  royalblue
  1 3112     141.27040100      86.40000000  blue
  1 3125     142.11360168      86.40000000  blue
  1 3078     140.13279724      86.40000000  blueviolet
  1 3079     139.93290710      86.40000000  blueviolet
  1 3080     139.60429382      86.40000000  blueviolet
  1 3081     139.41859436      86.40000000  blueviolet
  1 3082     139.43840027      86.40000000  blueviolet
  1 3083     139.93969727      86.40000000  blueviolet
  1 3084     139.78880310      86.40000000  blueviolet
  1 3085     139.73010254      86.40000000  blueviolet
  1 3086     139.74319458      86.40000000  blueviolet
  1 3087     139.69749451      86.40000000  blueviolet
  1 3088     139.81100464      86.40000000  blueviolet
  1 3089     139.84320068      86.40000000  blueviolet
  1 3090     139.72039795      86.40000000  blueviolet
  1 3091     139.80270386      86.40000000  blueviolet
  1 3092     139.72770691      86.40000000  blueviolet
  1 3093     139.95869446      86.40000000  blueviolet
  1 3094     140.35270691      86.40000000  blueviolet
  1 3095     140.72639465      86.40000000  blueviolet
  1 3096     140.82269287      86.40000000  blueviolet
  1 3055     141.22219849      86.40000000  purple
  1 3056     142.10499573      86.40000000  purple
  1 3057     142.76049805      86.40000000  purple
  1 3058     143.35789490      86.40000000  purple
  1 3059     143.70970154      86.40000000  purple
  1 3060     144.09910583      86.40000000  purple
  1 3015     143.39370728      86.40000000  mediumvioletred
  1 3016     143.64880371      86.40000000  mediumvioletred
  1 3017     143.81910706      86.40000000  mediumvioletred
  1 2855     140.38569641      86.40000000  crimson
  1 2920     141.42759705      86.40000000  crimson
  1 2970     142.58470154      86.40000000  crimson
END period  1

