# File generated by Flopy version 3.3.5 on 11/09/2021 at 14:51:26.
BEGIN griddata
  strt
    CONSTANT     138.00000000
END griddata

