# File generated by Flopy version 3.3.5 on 11/09/2021 at 14:51:27.
BEGIN options
  FIXED_CELL
  PRINT_INPUT
  PRINT_FLOWS
  SAVE_FLOWS
END options

BEGIN dimensions
  MAXBOUND  3603
END dimensions

BEGIN period  1
  1 7  5.47945205E-04
  1 8  5.47945205E-04
  1 24  5.47945205E-04
  1 25  5.47945205E-04
  1 26  5.47945205E-04
  1 27  5.47945205E-04
  1 28  5.47945205E-04
  1 29  5.47945205E-04
  1 30  5.47945205E-04
  1 31  5.47945205E-04
  1 32  5.47945205E-04
  1 33  5.47945205E-04
  1 34  5.47945205E-04
  1 35  5.47945205E-04
  1 36  5.47945205E-04
  1 37  5.47945205E-04
  1 38  5.47945205E-04
  1 39  5.47945205E-04
  1 40  5.47945205E-04
  1 41  5.47945205E-04
  1 42  5.47945205E-04
  1 43  5.47945205E-04
  1 44  5.47945205E-04
  1 45  5.47945205E-04
  1 46  5.47945205E-04
  1 47  5.47945205E-04
  1 48  5.47945205E-04
  1 49  5.47945205E-04
  1 50  5.47945205E-04
  1 53  5.47945205E-04
  1 54  5.47945205E-04
  1 55  5.47945205E-04
  1 56  5.47945205E-04
  1 57  5.47945205E-04
  1 58  5.47945205E-04
  1 59  5.47945205E-04
  1 60  5.47945205E-04
  1 61  5.47945205E-04
  1 62  5.47945205E-04
  1 63  5.47945205E-04
  1 64  5.47945205E-04
  1 65  5.47945205E-04
  1 66  5.47945205E-04
  1 67  5.47945205E-04
  1 68  5.47945205E-04
  1 69  5.47945205E-04
  1 70  5.47945205E-04
  1 71  5.47945205E-04
  1 72  5.47945205E-04
  1 73  5.47945205E-04
  1 74  5.47945205E-04
  1 75  5.47945205E-04
  1 76  5.47945205E-04
  1 77  5.47945205E-04
  1 78  5.47945205E-04
  1 79  5.47945205E-04
  1 80  5.47945205E-04
  1 81  5.47945205E-04
  1 82  5.47945205E-04
  1 83  5.47945205E-04
  1 86  5.47945205E-04
  1 87  5.47945205E-04
  1 88  5.47945205E-04
  1 89  5.47945205E-04
  1 90  5.47945205E-04
  1 91  5.47945205E-04
  1 92  5.47945205E-04
  1 93  5.47945205E-04
  1 94  5.47945205E-04
  1 95  5.47945205E-04
  1 96  5.47945205E-04
  1 97  5.47945205E-04
  1 98  5.47945205E-04
  1 99  5.47945205E-04
  1 100  5.47945205E-04
  1 101  5.47945205E-04
  1 102  5.47945205E-04
  1 103  5.47945205E-04
  1 104  5.47945205E-04
  1 105  5.47945205E-04
  1 106  5.47945205E-04
  1 107  5.47945205E-04
  1 108  5.47945205E-04
  1 109  5.47945205E-04
  1 110  5.47945205E-04
  1 111  5.47945205E-04
  1 112  5.47945205E-04
  1 113  5.47945205E-04
  1 114  5.47945205E-04
  1 115  5.47945205E-04
  1 118  5.47945205E-04
  1 119  5.47945205E-04
  1 120  5.47945205E-04
  1 121  5.47945205E-04
  1 122  5.47945205E-04
  1 123  5.47945205E-04
  1 124  5.47945205E-04
  1 125  5.47945205E-04
  1 126  5.47945205E-04
  1 127  5.47945205E-04
  1 128  5.47945205E-04
  1 129  5.47945205E-04
  1 130  5.47945205E-04
  1 131  5.47945205E-04
  1 132  5.47945205E-04
  1 133  5.47945205E-04
  1 134  5.47945205E-04
  1 135  5.47945205E-04
  1 136  5.47945205E-04
  1 137  5.47945205E-04
  1 138  5.47945205E-04
  1 139  5.47945205E-04
  1 140  5.47945205E-04
  1 141  5.47945205E-04
  1 142  5.47945205E-04
  1 143  5.47945205E-04
  1 144  5.47945205E-04
  1 145  5.47945205E-04
  1 146  5.47945205E-04
  1 147  5.47945205E-04
  1 148  5.47945205E-04
  1 149  5.47945205E-04
  1 152  5.47945205E-04
  1 153  5.47945205E-04
  1 154  5.47945205E-04
  1 155  5.47945205E-04
  1 156  5.47945205E-04
  1 157  5.47945205E-04
  1 158  5.47945205E-04
  1 159  5.47945205E-04
  1 160  5.47945205E-04
  1 161  5.47945205E-04
  1 162  5.47945205E-04
  1 163  5.47945205E-04
  1 164  5.47945205E-04
  1 165  5.47945205E-04
  1 166  5.47945205E-04
  1 167  5.47945205E-04
  1 168  5.47945205E-04
  1 169  5.47945205E-04
  1 170  5.47945205E-04
  1 171  5.47945205E-04
  1 172  5.47945205E-04
  1 173  5.47945205E-04
  1 174  5.47945205E-04
  1 175  5.47945205E-04
  1 176  5.47945205E-04
  1 177  5.47945205E-04
  1 178  5.47945205E-04
  1 179  5.47945205E-04
  1 180  5.47945205E-04
  1 181  5.47945205E-04
  1 182  5.47945205E-04
  1 183  5.47945205E-04
  1 184  5.47945205E-04
  1 185  5.47945205E-04
  1 188  5.47945205E-04
  1 189  5.47945205E-04
  1 190  5.47945205E-04
  1 191  5.47945205E-04
  1 192  5.47945205E-04
  1 193  5.47945205E-04
  1 194  5.47945205E-04
  1 195  5.47945205E-04
  1 196  5.47945205E-04
  1 197  5.47945205E-04
  1 198  5.47945205E-04
  1 199  5.47945205E-04
  1 200  5.47945205E-04
  1 201  5.47945205E-04
  1 202  5.47945205E-04
  1 203  5.47945205E-04
  1 204  5.47945205E-04
  1 205  5.47945205E-04
  1 206  5.47945205E-04
  1 207  5.47945205E-04
  1 208  5.47945205E-04
  1 209  5.47945205E-04
  1 210  5.47945205E-04
  1 211  5.47945205E-04
  1 212  5.47945205E-04
  1 213  5.47945205E-04
  1 214  5.47945205E-04
  1 215  5.47945205E-04
  1 216  5.47945205E-04
  1 217  5.47945205E-04
  1 218  5.47945205E-04
  1 219  5.47945205E-04
  1 220  5.47945205E-04
  1 221  5.47945205E-04
  1 222  5.47945205E-04
  1 223  5.47945205E-04
  1 225  5.47945205E-04
  1 226  5.47945205E-04
  1 227  5.47945205E-04
  1 228  5.47945205E-04
  1 229  5.47945205E-04
  1 230  5.47945205E-04
  1 231  5.47945205E-04
  1 232  5.47945205E-04
  1 233  5.47945205E-04
  1 234  5.47945205E-04
  1 235  5.47945205E-04
  1 236  5.47945205E-04
  1 237  5.47945205E-04
  1 238  5.47945205E-04
  1 239  5.47945205E-04
  1 240  5.47945205E-04
  1 241  5.47945205E-04
  1 242  5.47945205E-04
  1 243  5.47945205E-04
  1 244  5.47945205E-04
  1 245  5.47945205E-04
  1 246  5.47945205E-04
  1 247  5.47945205E-04
  1 248  5.47945205E-04
  1 249  5.47945205E-04
  1 250  5.47945205E-04
  1 251  5.47945205E-04
  1 252  5.47945205E-04
  1 253  5.47945205E-04
  1 254  5.47945205E-04
  1 255  5.47945205E-04
  1 256  5.47945205E-04
  1 257  5.47945205E-04
  1 258  5.47945205E-04
  1 259  5.47945205E-04
  1 260  5.47945205E-04
  1 261  5.47945205E-04
  1 262  5.47945205E-04
  1 263  5.47945205E-04
  1 266  5.47945205E-04
  1 267  5.47945205E-04
  1 268  5.47945205E-04
  1 269  5.47945205E-04
  1 270  5.47945205E-04
  1 271  5.47945205E-04
  1 272  5.47945205E-04
  1 273  5.47945205E-04
  1 274  5.47945205E-04
  1 275  5.47945205E-04
  1 276  5.47945205E-04
  1 277  5.47945205E-04
  1 278  5.47945205E-04
  1 279  5.47945205E-04
  1 280  5.47945205E-04
  1 281  5.47945205E-04
  1 282  5.47945205E-04
  1 283  5.47945205E-04
  1 284  5.47945205E-04
  1 285  5.47945205E-04
  1 286  5.47945205E-04
  1 287  5.47945205E-04
  1 288  5.47945205E-04
  1 289  5.47945205E-04
  1 290  5.47945205E-04
  1 291  5.47945205E-04
  1 292  5.47945205E-04
  1 293  5.47945205E-04
  1 294  5.47945205E-04
  1 295  5.47945205E-04
  1 296  5.47945205E-04
  1 297  5.47945205E-04
  1 298  5.47945205E-04
  1 299  5.47945205E-04
  1 300  5.47945205E-04
  1 301  5.47945205E-04
  1 302  5.47945205E-04
  1 303  5.47945205E-04
  1 304  5.47945205E-04
  1 305  5.47945205E-04
  1 306  5.47945205E-04
  1 307  5.47945205E-04
  1 308  5.47945205E-04
  1 309  5.47945205E-04
  1 310  5.47945205E-04
  1 311  5.47945205E-04
  1 312  5.47945205E-04
  1 313  5.47945205E-04
  1 314  5.47945205E-04
  1 352  5.47945205E-04
  1 353  5.47945205E-04
  1 354  5.47945205E-04
  1 355  5.47945205E-04
  1 356  5.47945205E-04
  1 357  5.47945205E-04
  1 358  5.47945205E-04
  1 359  5.47945205E-04
  1 360  5.47945205E-04
  1 361  5.47945205E-04
  1 362  5.47945205E-04
  1 363  5.47945205E-04
  1 364  5.47945205E-04
  1 365  5.47945205E-04
  1 366  5.47945205E-04
  1 367  5.47945205E-04
  1 368  5.47945205E-04
  1 369  5.47945205E-04
  1 370  5.47945205E-04
  1 371  5.47945205E-04
  1 372  5.47945205E-04
  1 373  5.47945205E-04
  1 374  5.47945205E-04
  1 375  5.47945205E-04
  1 376  5.47945205E-04
  1 377  5.47945205E-04
  1 378  5.47945205E-04
  1 379  5.47945205E-04
  1 380  5.47945205E-04
  1 381  5.47945205E-04
  1 382  5.47945205E-04
  1 383  5.47945205E-04
  1 384  5.47945205E-04
  1 385  5.47945205E-04
  1 386  5.47945205E-04
  1 387  5.47945205E-04
  1 388  5.47945205E-04
  1 389  5.47945205E-04
  1 390  5.47945205E-04
  1 391  5.47945205E-04
  1 392  5.47945205E-04
  1 393  5.47945205E-04
  1 394  5.47945205E-04
  1 395  5.47945205E-04
  1 396  5.47945205E-04
  1 397  5.47945205E-04
  1 398  5.47945205E-04
  1 399  5.47945205E-04
  1 400  5.47945205E-04
  1 401  5.47945205E-04
  1 402  5.47945205E-04
  1 403  5.47945205E-04
  1 404  5.47945205E-04
  1 405  5.47945205E-04
  1 406  5.47945205E-04
  1 407  5.47945205E-04
  1 408  5.47945205E-04
  1 409  5.47945205E-04
  1 410  5.47945205E-04
  1 411  5.47945205E-04
  1 412  5.47945205E-04
  1 413  5.47945205E-04
  1 414  5.47945205E-04
  1 415  5.47945205E-04
  1 416  5.47945205E-04
  1 417  5.47945205E-04
  1 418  5.47945205E-04
  1 419  5.47945205E-04
  1 420  5.47945205E-04
  1 421  5.47945205E-04
  1 422  5.47945205E-04
  1 423  5.47945205E-04
  1 424  5.47945205E-04
  1 425  5.47945205E-04
  1 426  5.47945205E-04
  1 427  5.47945205E-04
  1 428  5.47945205E-04
  1 429  5.47945205E-04
  1 430  5.47945205E-04
  1 431  5.47945205E-04
  1 432  5.47945205E-04
  1 433  5.47945205E-04
  1 434  5.47945205E-04
  1 435  5.47945205E-04
  1 436  5.47945205E-04
  1 437  5.47945205E-04
  1 438  5.47945205E-04
  1 439  5.47945205E-04
  1 442  5.47945205E-04
  1 443  5.47945205E-04
  1 444  5.47945205E-04
  1 445  5.47945205E-04
  1 446  5.47945205E-04
  1 447  5.47945205E-04
  1 448  5.47945205E-04
  1 449  5.47945205E-04
  1 450  5.47945205E-04
  1 451  5.47945205E-04
  1 452  5.47945205E-04
  1 453  5.47945205E-04
  1 454  5.47945205E-04
  1 455  5.47945205E-04
  1 456  5.47945205E-04
  1 457  5.47945205E-04
  1 458  5.47945205E-04
  1 459  5.47945205E-04
  1 460  5.47945205E-04
  1 461  5.47945205E-04
  1 462  5.47945205E-04
  1 463  5.47945205E-04
  1 464  5.47945205E-04
  1 465  5.47945205E-04
  1 466  5.47945205E-04
  1 467  5.47945205E-04
  1 468  5.47945205E-04
  1 469  5.47945205E-04
  1 470  5.47945205E-04
  1 471  5.47945205E-04
  1 472  5.47945205E-04
  1 473  5.47945205E-04
  1 474  5.47945205E-04
  1 475  5.47945205E-04
  1 476  5.47945205E-04
  1 477  5.47945205E-04
  1 478  5.47945205E-04
  1 479  5.47945205E-04
  1 480  5.47945205E-04
  1 481  5.47945205E-04
  1 482  5.47945205E-04
  1 483  5.47945205E-04
  1 484  5.47945205E-04
  1 485  5.47945205E-04
  1 486  5.47945205E-04
  1 487  5.47945205E-04
  1 488  5.47945205E-04
  1 489  5.47945205E-04
  1 490  5.47945205E-04
  1 491  5.47945205E-04
  1 492  5.47945205E-04
  1 493  5.47945205E-04
  1 494  5.47945205E-04
  1 495  5.47945205E-04
  1 496  5.47945205E-04
  1 497  5.47945205E-04
  1 498  5.47945205E-04
  1 499  5.47945205E-04
  1 500  5.47945205E-04
  1 501  5.47945205E-04
  1 502  5.47945205E-04
  1 503  5.47945205E-04
  1 504  5.47945205E-04
  1 505  5.47945205E-04
  1 506  5.47945205E-04
  1 507  5.47945205E-04
  1 508  5.47945205E-04
  1 509  5.47945205E-04
  1 510  5.47945205E-04
  1 511  5.47945205E-04
  1 512  5.47945205E-04
  1 513  5.47945205E-04
  1 514  5.47945205E-04
  1 515  5.47945205E-04
  1 518  5.47945205E-04
  1 519  5.47945205E-04
  1 520  5.47945205E-04
  1 521  5.47945205E-04
  1 522  5.47945205E-04
  1 523  5.47945205E-04
  1 524  5.47945205E-04
  1 525  5.47945205E-04
  1 526  5.47945205E-04
  1 527  5.47945205E-04
  1 528  5.47945205E-04
  1 529  5.47945205E-04
  1 530  5.47945205E-04
  1 531  5.47945205E-04
  1 532  5.47945205E-04
  1 533  5.47945205E-04
  1 534  5.47945205E-04
  1 535  5.47945205E-04
  1 536  5.47945205E-04
  1 537  5.47945205E-04
  1 538  5.47945205E-04
  1 539  5.47945205E-04
  1 540  5.47945205E-04
  1 541  5.47945205E-04
  1 542  5.47945205E-04
  1 543  5.47945205E-04
  1 544  5.47945205E-04
  1 545  5.47945205E-04
  1 546  5.47945205E-04
  1 547  5.47945205E-04
  1 548  5.47945205E-04
  1 549  5.47945205E-04
  1 550  5.47945205E-04
  1 551  5.47945205E-04
  1 552  5.47945205E-04
  1 553  5.47945205E-04
  1 554  5.47945205E-04
  1 555  5.47945205E-04
  1 556  5.47945205E-04
  1 557  5.47945205E-04
  1 558  5.47945205E-04
  1 559  5.47945205E-04
  1 560  5.47945205E-04
  1 561  5.47945205E-04
  1 562  5.47945205E-04
  1 563  5.47945205E-04
  1 564  5.47945205E-04
  1 565  5.47945205E-04
  1 566  5.47945205E-04
  1 567  5.47945205E-04
  1 568  5.47945205E-04
  1 569  5.47945205E-04
  1 570  5.47945205E-04
  1 571  5.47945205E-04
  1 572  5.47945205E-04
  1 573  5.47945205E-04
  1 574  5.47945205E-04
  1 575  5.47945205E-04
  1 576  5.47945205E-04
  1 577  5.47945205E-04
  1 578  5.47945205E-04
  1 579  5.47945205E-04
  1 580  5.47945205E-04
  1 581  5.47945205E-04
  1 582  5.47945205E-04
  1 583  5.47945205E-04
  1 584  5.47945205E-04
  1 585  5.47945205E-04
  1 586  5.47945205E-04
  1 587  5.47945205E-04
  1 588  5.47945205E-04
  1 589  5.47945205E-04
  1 590  5.47945205E-04
  1 591  5.47945205E-04
  1 592  5.47945205E-04
  1 593  5.47945205E-04
  1 594  5.47945205E-04
  1 595  5.47945205E-04
  1 598  5.47945205E-04
  1 599  5.47945205E-04
  1 600  5.47945205E-04
  1 601  5.47945205E-04
  1 602  5.47945205E-04
  1 603  5.47945205E-04
  1 604  5.47945205E-04
  1 605  5.47945205E-04
  1 606  5.47945205E-04
  1 607  5.47945205E-04
  1 608  5.47945205E-04
  1 609  5.47945205E-04
  1 610  5.47945205E-04
  1 611  5.47945205E-04
  1 612  5.47945205E-04
  1 613  5.47945205E-04
  1 614  5.47945205E-04
  1 615  5.47945205E-04
  1 616  5.47945205E-04
  1 617  5.47945205E-04
  1 618  5.47945205E-04
  1 619  5.47945205E-04
  1 620  5.47945205E-04
  1 621  5.47945205E-04
  1 622  5.47945205E-04
  1 623  5.47945205E-04
  1 624  5.47945205E-04
  1 625  5.47945205E-04
  1 626  5.47945205E-04
  1 627  5.47945205E-04
  1 628  5.47945205E-04
  1 629  5.47945205E-04
  1 630  5.47945205E-04
  1 631  5.47945205E-04
  1 632  5.47945205E-04
  1 633  5.47945205E-04
  1 634  5.47945205E-04
  1 635  5.47945205E-04
  1 636  5.47945205E-04
  1 637  5.47945205E-04
  1 638  5.47945205E-04
  1 639  5.47945205E-04
  1 640  5.47945205E-04
  1 641  5.47945205E-04
  1 642  5.47945205E-04
  1 643  5.47945205E-04
  1 644  5.47945205E-04
  1 645  5.47945205E-04
  1 646  5.47945205E-04
  1 647  5.47945205E-04
  1 648  5.47945205E-04
  1 649  5.47945205E-04
  1 650  5.47945205E-04
  1 651  5.47945205E-04
  1 652  5.47945205E-04
  1 653  5.47945205E-04
  1 654  5.47945205E-04
  1 655  5.47945205E-04
  1 656  5.47945205E-04
  1 657  5.47945205E-04
  1 658  5.47945205E-04
  1 659  5.47945205E-04
  1 660  5.47945205E-04
  1 661  5.47945205E-04
  1 662  5.47945205E-04
  1 663  5.47945205E-04
  1 664  5.47945205E-04
  1 665  5.47945205E-04
  1 666  5.47945205E-04
  1 667  5.47945205E-04
  1 668  5.47945205E-04
  1 669  5.47945205E-04
  1 670  5.47945205E-04
  1 671  5.47945205E-04
  1 672  5.47945205E-04
  1 673  5.47945205E-04
  1 674  5.47945205E-04
  1 675  5.47945205E-04
  1 676  5.47945205E-04
  1 679  5.47945205E-04
  1 680  5.47945205E-04
  1 681  5.47945205E-04
  1 682  5.47945205E-04
  1 683  5.47945205E-04
  1 684  5.47945205E-04
  1 685  5.47945205E-04
  1 686  5.47945205E-04
  1 687  5.47945205E-04
  1 688  5.47945205E-04
  1 689  5.47945205E-04
  1 690  5.47945205E-04
  1 691  5.47945205E-04
  1 692  5.47945205E-04
  1 693  5.47945205E-04
  1 694  5.47945205E-04
  1 695  5.47945205E-04
  1 696  5.47945205E-04
  1 697  5.47945205E-04
  1 698  5.47945205E-04
  1 699  5.47945205E-04
  1 700  5.47945205E-04
  1 701  5.47945205E-04
  1 702  5.47945205E-04
  1 703  5.47945205E-04
  1 704  5.47945205E-04
  1 705  5.47945205E-04
  1 706  5.47945205E-04
  1 707  5.47945205E-04
  1 708  5.47945205E-04
  1 709  5.47945205E-04
  1 710  5.47945205E-04
  1 711  5.47945205E-04
  1 712  5.47945205E-04
  1 713  5.47945205E-04
  1 714  5.47945205E-04
  1 715  5.47945205E-04
  1 716  5.47945205E-04
  1 717  5.47945205E-04
  1 718  5.47945205E-04
  1 719  5.47945205E-04
  1 720  5.47945205E-04
  1 721  5.47945205E-04
  1 722  5.47945205E-04
  1 723  5.47945205E-04
  1 724  5.47945205E-04
  1 725  5.47945205E-04
  1 726  5.47945205E-04
  1 727  5.47945205E-04
  1 728  5.47945205E-04
  1 729  5.47945205E-04
  1 730  5.47945205E-04
  1 731  5.47945205E-04
  1 732  5.47945205E-04
  1 733  5.47945205E-04
  1 734  5.47945205E-04
  1 735  5.47945205E-04
  1 736  5.47945205E-04
  1 737  5.47945205E-04
  1 738  5.47945205E-04
  1 739  5.47945205E-04
  1 740  5.47945205E-04
  1 741  5.47945205E-04
  1 742  5.47945205E-04
  1 743  5.47945205E-04
  1 744  5.47945205E-04
  1 745  5.47945205E-04
  1 746  5.47945205E-04
  1 747  5.47945205E-04
  1 748  5.47945205E-04
  1 749  5.47945205E-04
  1 750  5.47945205E-04
  1 751  5.47945205E-04
  1 752  5.47945205E-04
  1 753  5.47945205E-04
  1 754  5.47945205E-04
  1 755  5.47945205E-04
  1 756  5.47945205E-04
  1 757  5.47945205E-04
  1 758  5.47945205E-04
  1 761  5.47945205E-04
  1 762  5.47945205E-04
  1 763  5.47945205E-04
  1 764  5.47945205E-04
  1 765  5.47945205E-04
  1 766  5.47945205E-04
  1 767  5.47945205E-04
  1 768  5.47945205E-04
  1 769  5.47945205E-04
  1 770  5.47945205E-04
  1 771  5.47945205E-04
  1 772  5.47945205E-04
  1 773  5.47945205E-04
  1 774  5.47945205E-04
  1 775  5.47945205E-04
  1 776  5.47945205E-04
  1 777  5.47945205E-04
  1 778  5.47945205E-04
  1 779  5.47945205E-04
  1 780  5.47945205E-04
  1 781  5.47945205E-04
  1 782  5.47945205E-04
  1 783  5.47945205E-04
  1 784  5.47945205E-04
  1 785  5.47945205E-04
  1 786  5.47945205E-04
  1 787  5.47945205E-04
  1 788  5.47945205E-04
  1 789  5.47945205E-04
  1 790  5.47945205E-04
  1 791  5.47945205E-04
  1 792  5.47945205E-04
  1 793  5.47945205E-04
  1 794  5.47945205E-04
  1 795  5.47945205E-04
  1 796  5.47945205E-04
  1 797  5.47945205E-04
  1 798  5.47945205E-04
  1 799  5.47945205E-04
  1 800  5.47945205E-04
  1 801  5.47945205E-04
  1 802  5.47945205E-04
  1 803  5.47945205E-04
  1 804  5.47945205E-04
  1 805  5.47945205E-04
  1 806  5.47945205E-04
  1 807  5.47945205E-04
  1 808  5.47945205E-04
  1 809  5.47945205E-04
  1 810  5.47945205E-04
  1 811  5.47945205E-04
  1 812  5.47945205E-04
  1 813  5.47945205E-04
  1 814  5.47945205E-04
  1 815  5.47945205E-04
  1 816  5.47945205E-04
  1 817  5.47945205E-04
  1 818  5.47945205E-04
  1 819  5.47945205E-04
  1 820  5.47945205E-04
  1 821  5.47945205E-04
  1 822  5.47945205E-04
  1 823  5.47945205E-04
  1 824  5.47945205E-04
  1 825  5.47945205E-04
  1 826  5.47945205E-04
  1 827  5.47945205E-04
  1 828  5.47945205E-04
  1 829  5.47945205E-04
  1 830  5.47945205E-04
  1 831  5.47945205E-04
  1 832  5.47945205E-04
  1 833  5.47945205E-04
  1 834  5.47945205E-04
  1 835  5.47945205E-04
  1 836  5.47945205E-04
  1 837  5.47945205E-04
  1 838  5.47945205E-04
  1 839  5.47945205E-04
  1 840  5.47945205E-04
  1 841  5.47945205E-04
  1 844  5.47945205E-04
  1 845  5.47945205E-04
  1 846  5.47945205E-04
  1 847  5.47945205E-04
  1 848  5.47945205E-04
  1 849  5.47945205E-04
  1 850  5.47945205E-04
  1 851  5.47945205E-04
  1 852  5.47945205E-04
  1 853  5.47945205E-04
  1 854  5.47945205E-04
  1 855  5.47945205E-04
  1 856  5.47945205E-04
  1 857  5.47945205E-04
  1 858  5.47945205E-04
  1 859  5.47945205E-04
  1 860  5.47945205E-04
  1 861  5.47945205E-04
  1 862  5.47945205E-04
  1 863  5.47945205E-04
  1 864  5.47945205E-04
  1 865  5.47945205E-04
  1 866  5.47945205E-04
  1 867  5.47945205E-04
  1 868  5.47945205E-04
  1 869  5.47945205E-04
  1 870  5.47945205E-04
  1 871  5.47945205E-04
  1 872  5.47945205E-04
  1 873  5.47945205E-04
  1 874  5.47945205E-04
  1 875  5.47945205E-04
  1 876  5.47945205E-04
  1 877  5.47945205E-04
  1 878  5.47945205E-04
  1 879  5.47945205E-04
  1 880  5.47945205E-04
  1 881  5.47945205E-04
  1 882  5.47945205E-04
  1 883  5.47945205E-04
  1 884  5.47945205E-04
  1 885  5.47945205E-04
  1 886  5.47945205E-04
  1 887  5.47945205E-04
  1 888  5.47945205E-04
  1 889  5.47945205E-04
  1 890  5.47945205E-04
  1 891  5.47945205E-04
  1 892  5.47945205E-04
  1 893  5.47945205E-04
  1 894  5.47945205E-04
  1 895  5.47945205E-04
  1 896  5.47945205E-04
  1 897  5.47945205E-04
  1 898  5.47945205E-04
  1 899  5.47945205E-04
  1 900  5.47945205E-04
  1 901  5.47945205E-04
  1 902  5.47945205E-04
  1 903  5.47945205E-04
  1 904  5.47945205E-04
  1 905  5.47945205E-04
  1 906  5.47945205E-04
  1 907  5.47945205E-04
  1 908  5.47945205E-04
  1 909  5.47945205E-04
  1 910  5.47945205E-04
  1 911  5.47945205E-04
  1 912  5.47945205E-04
  1 913  5.47945205E-04
  1 914  5.47945205E-04
  1 915  5.47945205E-04
  1 916  5.47945205E-04
  1 917  5.47945205E-04
  1 918  5.47945205E-04
  1 919  5.47945205E-04
  1 920  5.47945205E-04
  1 921  5.47945205E-04
  1 922  5.47945205E-04
  1 923  5.47945205E-04
  1 924  5.47945205E-04
  1 925  5.47945205E-04
  1 926  5.47945205E-04
  1 927  5.47945205E-04
  1 930  5.47945205E-04
  1 931  5.47945205E-04
  1 932  5.47945205E-04
  1 933  5.47945205E-04
  1 934  5.47945205E-04
  1 935  5.47945205E-04
  1 936  5.47945205E-04
  1 937  5.47945205E-04
  1 938  5.47945205E-04
  1 939  5.47945205E-04
  1 940  5.47945205E-04
  1 941  5.47945205E-04
  1 942  5.47945205E-04
  1 943  5.47945205E-04
  1 944  5.47945205E-04
  1 945  5.47945205E-04
  1 946  5.47945205E-04
  1 947  5.47945205E-04
  1 948  5.47945205E-04
  1 949  5.47945205E-04
  1 950  5.47945205E-04
  1 951  5.47945205E-04
  1 952  5.47945205E-04
  1 953  5.47945205E-04
  1 954  5.47945205E-04
  1 955  5.47945205E-04
  1 956  5.47945205E-04
  1 957  5.47945205E-04
  1 958  5.47945205E-04
  1 959  5.47945205E-04
  1 960  5.47945205E-04
  1 961  5.47945205E-04
  1 962  5.47945205E-04
  1 963  5.47945205E-04
  1 964  5.47945205E-04
  1 965  5.47945205E-04
  1 966  5.47945205E-04
  1 967  5.47945205E-04
  1 968  5.47945205E-04
  1 969  5.47945205E-04
  1 970  5.47945205E-04
  1 971  5.47945205E-04
  1 972  5.47945205E-04
  1 973  5.47945205E-04
  1 974  5.47945205E-04
  1 975  5.47945205E-04
  1 976  5.47945205E-04
  1 977  5.47945205E-04
  1 978  5.47945205E-04
  1 979  5.47945205E-04
  1 980  5.47945205E-04
  1 981  5.47945205E-04
  1 982  5.47945205E-04
  1 983  5.47945205E-04
  1 984  5.47945205E-04
  1 985  5.47945205E-04
  1 986  5.47945205E-04
  1 987  5.47945205E-04
  1 988  5.47945205E-04
  1 989  5.47945205E-04
  1 990  5.47945205E-04
  1 991  5.47945205E-04
  1 992  5.47945205E-04
  1 993  5.47945205E-04
  1 994  5.47945205E-04
  1 995  5.47945205E-04
  1 996  5.47945205E-04
  1 997  5.47945205E-04
  1 998  5.47945205E-04
  1 999  5.47945205E-04
  1 1000  5.47945205E-04
  1 1001  5.47945205E-04
  1 1002  5.47945205E-04
  1 1003  5.47945205E-04
  1 1004  5.47945205E-04
  1 1005  5.47945205E-04
  1 1006  5.47945205E-04
  1 1007  5.47945205E-04
  1 1008  5.47945205E-04
  1 1009  5.47945205E-04
  1 1010  5.47945205E-04
  1 1011  5.47945205E-04
  1 1012  5.47945205E-04
  1 1013  5.47945205E-04
  1 1014  5.47945205E-04
  1 1015  5.47945205E-04
  1 1016  5.47945205E-04
  1 1017  5.47945205E-04
  1 1018  5.47945205E-04
  1 1019  5.47945205E-04
  1 1020  5.47945205E-04
  1 1021  5.47945205E-04
  1 1022  5.47945205E-04
  1 1023  5.47945205E-04
  1 1024  5.47945205E-04
  1 1025  5.47945205E-04
  1 1028  5.47945205E-04
  1 1029  5.47945205E-04
  1 1030  5.47945205E-04
  1 1031  5.47945205E-04
  1 1032  5.47945205E-04
  1 1033  5.47945205E-04
  1 1034  5.47945205E-04
  1 1035  5.47945205E-04
  1 1036  5.47945205E-04
  1 1037  5.47945205E-04
  1 1038  5.47945205E-04
  1 1039  5.47945205E-04
  1 1040  5.47945205E-04
  1 1041  5.47945205E-04
  1 1042  5.47945205E-04
  1 1043  5.47945205E-04
  1 1044  5.47945205E-04
  1 1045  5.47945205E-04
  1 1046  5.47945205E-04
  1 1047  5.47945205E-04
  1 1048  5.47945205E-04
  1 1049  5.47945205E-04
  1 1050  5.47945205E-04
  1 1051  5.47945205E-04
  1 1052  5.47945205E-04
  1 1053  5.47945205E-04
  1 1054  5.47945205E-04
  1 1055  5.47945205E-04
  1 1056  5.47945205E-04
  1 1057  5.47945205E-04
  1 1058  5.47945205E-04
  1 1059  5.47945205E-04
  1 1060  5.47945205E-04
  1 1061  5.47945205E-04
  1 1062  5.47945205E-04
  1 1063  5.47945205E-04
  1 1064  5.47945205E-04
  1 1065  5.47945205E-04
  1 1066  5.47945205E-04
  1 1067  5.47945205E-04
  1 1068  5.47945205E-04
  1 1069  5.47945205E-04
  1 1070  5.47945205E-04
  1 1071  5.47945205E-04
  1 1072  5.47945205E-04
  1 1073  5.47945205E-04
  1 1074  5.47945205E-04
  1 1075  5.47945205E-04
  1 1076  5.47945205E-04
  1 1077  5.47945205E-04
  1 1078  5.47945205E-04
  1 1079  5.47945205E-04
  1 1080  5.47945205E-04
  1 1081  5.47945205E-04
  1 1082  5.47945205E-04
  1 1083  5.47945205E-04
  1 1084  5.47945205E-04
  1 1085  5.47945205E-04
  1 1086  5.47945205E-04
  1 1087  5.47945205E-04
  1 1088  5.47945205E-04
  1 1089  5.47945205E-04
  1 1090  5.47945205E-04
  1 1091  5.47945205E-04
  1 1092  5.47945205E-04
  1 1093  5.47945205E-04
  1 1094  5.47945205E-04
  1 1095  5.47945205E-04
  1 1096  5.47945205E-04
  1 1097  5.47945205E-04
  1 1098  5.47945205E-04
  1 1099  5.47945205E-04
  1 1100  5.47945205E-04
  1 1101  5.47945205E-04
  1 1102  5.47945205E-04
  1 1103  5.47945205E-04
  1 1104  5.47945205E-04
  1 1105  5.47945205E-04
  1 1106  5.47945205E-04
  1 1107  5.47945205E-04
  1 1108  5.47945205E-04
  1 1109  5.47945205E-04
  1 1110  5.47945205E-04
  1 1111  5.47945205E-04
  1 1112  5.47945205E-04
  1 1113  5.47945205E-04
  1 1114  5.47945205E-04
  1 1115  5.47945205E-04
  1 1116  5.47945205E-04
  1 1117  5.47945205E-04
  1 1120  5.47945205E-04
  1 1121  5.47945205E-04
  1 1122  5.47945205E-04
  1 1123  5.47945205E-04
  1 1124  5.47945205E-04
  1 1125  5.47945205E-04
  1 1126  5.47945205E-04
  1 1127  5.47945205E-04
  1 1128  5.47945205E-04
  1 1129  5.47945205E-04
  1 1130  5.47945205E-04
  1 1131  5.47945205E-04
  1 1132  5.47945205E-04
  1 1133  5.47945205E-04
  1 1134  5.47945205E-04
  1 1135  5.47945205E-04
  1 1136  5.47945205E-04
  1 1137  5.47945205E-04
  1 1138  5.47945205E-04
  1 1139  5.47945205E-04
  1 1140  5.47945205E-04
  1 1141  5.47945205E-04
  1 1142  5.47945205E-04
  1 1143  5.47945205E-04
  1 1144  5.47945205E-04
  1 1145  5.47945205E-04
  1 1146  5.47945205E-04
  1 1147  5.47945205E-04
  1 1148  5.47945205E-04
  1 1149  5.47945205E-04
  1 1150  5.47945205E-04
  1 1151  5.47945205E-04
  1 1152  5.47945205E-04
  1 1153  5.47945205E-04
  1 1154  5.47945205E-04
  1 1155  5.47945205E-04
  1 1156  5.47945205E-04
  1 1157  5.47945205E-04
  1 1158  5.47945205E-04
  1 1159  5.47945205E-04
  1 1160  5.47945205E-04
  1 1161  5.47945205E-04
  1 1162  5.47945205E-04
  1 1163  5.47945205E-04
  1 1164  5.47945205E-04
  1 1165  5.47945205E-04
  1 1166  5.47945205E-04
  1 1167  5.47945205E-04
  1 1168  5.47945205E-04
  1 1169  5.47945205E-04
  1 1170  5.47945205E-04
  1 1171  5.47945205E-04
  1 1172  5.47945205E-04
  1 1173  5.47945205E-04
  1 1174  5.47945205E-04
  1 1175  5.47945205E-04
  1 1176  5.47945205E-04
  1 1177  5.47945205E-04
  1 1178  5.47945205E-04
  1 1179  5.47945205E-04
  1 1180  5.47945205E-04
  1 1181  5.47945205E-04
  1 1182  5.47945205E-04
  1 1183  5.47945205E-04
  1 1184  5.47945205E-04
  1 1185  5.47945205E-04
  1 1186  5.47945205E-04
  1 1187  5.47945205E-04
  1 1188  5.47945205E-04
  1 1189  5.47945205E-04
  1 1190  5.47945205E-04
  1 1191  5.47945205E-04
  1 1192  5.47945205E-04
  1 1193  5.47945205E-04
  1 1194  5.47945205E-04
  1 1195  5.47945205E-04
  1 1196  5.47945205E-04
  1 1197  5.47945205E-04
  1 1198  5.47945205E-04
  1 1199  5.47945205E-04
  1 1200  5.47945205E-04
  1 1201  5.47945205E-04
  1 1202  5.47945205E-04
  1 1203  5.47945205E-04
  1 1204  5.47945205E-04
  1 1205  5.47945205E-04
  1 1206  5.47945205E-04
  1 1207  5.47945205E-04
  1 1208  5.47945205E-04
  1 1209  5.47945205E-04
  1 1210  5.47945205E-04
  1 1211  5.47945205E-04
  1 1212  5.47945205E-04
  1 1213  5.47945205E-04
  1 1214  5.47945205E-04
  1 1215  5.47945205E-04
  1 1216  5.47945205E-04
  1 1217  5.47945205E-04
  1 1218  5.47945205E-04
  1 1219  5.47945205E-04
  1 1220  5.47945205E-04
  1 1221  5.47945205E-04
  1 1222  5.47945205E-04
  1 1223  5.47945205E-04
  1 1224  5.47945205E-04
  1 1227  5.47945205E-04
  1 1228  5.47945205E-04
  1 1229  5.47945205E-04
  1 1230  5.47945205E-04
  1 1231  5.47945205E-04
  1 1232  5.47945205E-04
  1 1233  5.47945205E-04
  1 1234  5.47945205E-04
  1 1235  5.47945205E-04
  1 1236  5.47945205E-04
  1 1237  5.47945205E-04
  1 1238  5.47945205E-04
  1 1239  5.47945205E-04
  1 1240  5.47945205E-04
  1 1241  5.47945205E-04
  1 1242  5.47945205E-04
  1 1243  5.47945205E-04
  1 1244  5.47945205E-04
  1 1245  5.47945205E-04
  1 1246  5.47945205E-04
  1 1247  5.47945205E-04
  1 1248  5.47945205E-04
  1 1249  5.47945205E-04
  1 1250  5.47945205E-04
  1 1251  5.47945205E-04
  1 1252  5.47945205E-04
  1 1253  5.47945205E-04
  1 1254  5.47945205E-04
  1 1255  5.47945205E-04
  1 1256  5.47945205E-04
  1 1257  5.47945205E-04
  1 1258  5.47945205E-04
  1 1259  5.47945205E-04
  1 1260  5.47945205E-04
  1 1261  5.47945205E-04
  1 1262  5.47945205E-04
  1 1263  5.47945205E-04
  1 1264  5.47945205E-04
  1 1265  5.47945205E-04
  1 1266  5.47945205E-04
  1 1267  5.47945205E-04
  1 1268  5.47945205E-04
  1 1269  5.47945205E-04
  1 1270  5.47945205E-04
  1 1271  5.47945205E-04
  1 1272  5.47945205E-04
  1 1273  5.47945205E-04
  1 1274  5.47945205E-04
  1 1275  5.47945205E-04
  1 1276  5.47945205E-04
  1 1277  5.47945205E-04
  1 1278  5.47945205E-04
  1 1279  5.47945205E-04
  1 1280  5.47945205E-04
  1 1281  5.47945205E-04
  1 1282  5.47945205E-04
  1 1283  5.47945205E-04
  1 1284  5.47945205E-04
  1 1285  5.47945205E-04
  1 1286  5.47945205E-04
  1 1287  5.47945205E-04
  1 1288  5.47945205E-04
  1 1289  5.47945205E-04
  1 1290  5.47945205E-04
  1 1291  5.47945205E-04
  1 1292  5.47945205E-04
  1 1293  5.47945205E-04
  1 1294  5.47945205E-04
  1 1295  5.47945205E-04
  1 1296  5.47945205E-04
  1 1297  5.47945205E-04
  1 1298  5.47945205E-04
  1 1299  5.47945205E-04
  1 1300  5.47945205E-04
  1 1301  5.47945205E-04
  1 1302  5.47945205E-04
  1 1303  5.47945205E-04
  1 1304  5.47945205E-04
  1 1305  5.47945205E-04
  1 1306  5.47945205E-04
  1 1307  5.47945205E-04
  1 1308  5.47945205E-04
  1 1309  5.47945205E-04
  1 1310  5.47945205E-04
  1 1311  5.47945205E-04
  1 1312  5.47945205E-04
  1 1313  5.47945205E-04
  1 1314  5.47945205E-04
  1 1315  5.47945205E-04
  1 1316  5.47945205E-04
  1 1317  5.47945205E-04
  1 1318  5.47945205E-04
  1 1319  5.47945205E-04
  1 1320  5.47945205E-04
  1 1321  5.47945205E-04
  1 1322  5.47945205E-04