# File generated by Flopy version 3.3.5 on 11/04/2021 at 11:01:54.
BEGIN options
  DIGITS  10
  PRINT_INPUT
END options

BEGIN continuous  FILEOUT  head.obs.csv
  B9-2  HEAD  1 351  1 352
  B10-2  HEAD  1 1254  1 1255
  B12-1  HEAD  1 1387  1 1388
  B16-1  HEAD  1 1981  1 1982
  B2-1  HEAD  1 1752  1 1753
  B22-1  HEAD  1 1473  1 1474
  B27  HEAD  1 1388  1 1389
  B29  HEAD  1 1557  1 1558
  KB1-1  HEAD  1 2347  1 2348
  KB4-3  HEAD  1 1279  1 1280
  NI1301-1  HEAD  1 1475  1 1476
  NI1302-1  HEAD  1 1474  1 1475
  NI1403-1  HEAD  1 2356  1 2357
  NI1405-1  HEAD  1 2196  1 2197
  NI1407-1  HEAD  1 1471  1 1472
  NI1408-1  HEAD  1 1384  1 1385
  NI1409-1  HEAD  1 1678  1 1679
  NI1410-1  HEAD  1 1680  1 1681
  NI1411-1  HEAD  1 1569  1 1570
  NI1412-1  HEAD  1 2355  1 2356
  NI1413-1  HEAD  1 2450  1 2451
  NI1501-1  HEAD  1 1297  1 1298
  NI1502-2  HEAD  1 1147  1 1148
  NI1503-2  HEAD  1 1231  1 1232
  NI1504-2  HEAD  1 1310  1 1311
  NI1505-1  HEAD  1 1308  1 1309
  NI1506-1  HEAD  1 1387  1 1388
  NI15-O1  HEAD  1 2437  1 2438
  NI15-O44  HEAD  1 2251  1 2252
  NI15-O46  HEAD  1 1546  1 1547
  NI15-O47  HEAD  1 1639  1 1640
  NI15-O48  HEAD  1 947  1 948
  NI1601-1  HEAD  1 2255  1 2256
  NI1602-1  HEAD  1 2108  1 2109
  NI1603-1  HEAD  1 2040  1 2041
  NI1605-1  HEAD  1 2357  1 2358
  NI1606-1  HEAD  1 1887  1 1888
  NI1607-1  HEAD  1 2437  1 2438
  NI1608-1  HEAD  1 2516  1 2517
  NI1609-2  HEAD  1 2520  1 2521
  NI1610-2  HEAD  1 2518  1 2519
  NI1611-1  HEAD  1 2521  1 2522
  NI1612-1  HEAD  1 2340  1 2341
  NI1613-1  HEAD  1 2040  1 2041
  NI1703-1  HEAD  1 2439  1 2440
  NI1704-1  HEAD  1 1033  1 1034
  NI1705-1  HEAD  1 1198  1 1199
  NI1712-1  HEAD  1 2523  1 2524
  NI1801-1  HEAD  1 1113  1 1114
  NI1802-1  HEAD  1 1113  1 1114
  NI1803-1  HEAD  1 1197  1 1198
  NI1804-1  HEAD  1 1277  1 1278
  B9-4  HEAD  2 351  2 352
  B10-4  HEAD  2 1254  2 1255
  B13-1  HEAD  2 1475  2 1476
  B14-1  HEAD  2 1682  2 1683
  B15-1  HEAD  2 1391  2 1392
  B20-1  HEAD  2 1308  2 1309
  B21-1  HEAD  2 1474  2 1475
  B2-2  HEAD  2 1752  2 1753
  B22-2  HEAD  2 1473  2 1474
  B26  HEAD  2 1476  2 1477
  B35  HEAD  2 2260  2 2261
  B36  HEAD  2 2353  2 2354
  B37  HEAD  2 2355  2 2356
  B8-1  HEAD  2 2013  2 2014
  KB4-4  HEAD  2 1279  2 1280
  NI1301-2  HEAD  2 1475  2 1476
  NI1302-2  HEAD  2 1474  2 1475
  NI1401-1  HEAD  2 1568  2 1569
  NI1402-1  HEAD  2 1387  2 1388
  NI1404-1  HEAD  2 1475  2 1476
  NI1407-2  HEAD  2 1471  2 1472
  NI1408-2  HEAD  2 1384  2 1385
  NI1409-2  HEAD  2 1678  2 1679
  NI1410-2  HEAD  2 1680  2 1681
  NI1411-2  HEAD  2 1569  2 1570
  NI1413-2  HEAD  2 2450  2 2451
  NI1501-2  HEAD  2 1297  2 1298
  NI1505-2  HEAD  2 1308  2 1309
  NI1506-2  HEAD  2 1387  2 1388
  NI1507-2  HEAD  2 1226  2 1227
  NI1601-2  HEAD  2 2255  2 2256
  NI1604-1  HEAD  2 2354  2 2355
  NI1606-2  HEAD  2 1887  2 1888
  NI1607-2  HEAD  2 2437  2 2438
  NI1608-2  HEAD  2 2516  2 2517
  NI1703-2  HEAD  2 2439  2 2440
  NI1706-1  HEAD  2 1439  2 1440
  NI1709-1  HEAD  2 2266  2 2267
  NI1801-3  HEAD  2 1113  2 1114
  NI1803-3  HEAD  2 1197  2 1198
  NI1804-3  HEAD  2 1277  2 1278
  B9-5  HEAD  3 351  3 352
  B10-5  HEAD  3 1254  3 1255
  B16-2  HEAD  3 1981  3 1982
  B19-4  HEAD  3 2357  3 2358
  B21-3  HEAD  3 1474  3 1475
  B22-4  HEAD  3 1473  3 1474
  B2-3  HEAD  3 1752  3 1753
  B30  HEAD  3 1296  3 1297
  B34  HEAD  3 2259  3 2260
  B4  HEAD  3 994  3 995
  B8-2  HEAD  3 2013  3 2014
  NI1301-3  HEAD  3 1475  3 1476
  NI1302-3  HEAD  3 1474  3 1475
  NI1401-2  HEAD  3 1568  3 1569
  NI1402-2  HEAD  3 1387  3 1388
  NI1403-2  HEAD  3 2356  3 2357
  NI1404-2  HEAD  3 1475  3 1476
  NI1405-2  HEAD  3 2196  3 2197
  NI1406-1  HEAD  3 1474  3 1475
  NI1407-3  HEAD  3 1471  3 1472
  NI1408-3  HEAD  3 1384  3 1385
  NI1409-3  HEAD  3 1678  3 1679
  NI1410-3  HEAD  3 1680  3 1681
  NI1411-3  HEAD  3 1569  3 1570
  NI1412-3  HEAD  3 2355  3 2356
  NI1413-3  HEAD  3 2450  3 2451
  NI1501-3  HEAD  3 1297  3 1298
  NI1502-3  HEAD  3 1147  3 1148
  NI1503-3  HEAD  3 1231  3 1232
  NI1504-3  HEAD  3 1310  3 1311
  NI1505-3  HEAD  3 1308  3 1309
  NI1506-3  HEAD  3 1387  3 1388
  NI1507-3  HEAD  3 1226  3 1227
  NI1601-3  HEAD  3 2255  3 2256
  NI1602-2  HEAD  3 2108  3 2109
  NI1603-2  HEAD  3 2040  3 2041
  NI1604-3  HEAD  3 2354  3 2355
  NI1605-3  HEAD  3 2357  3 2358
  NI1606-3  HEAD  3 1887  3 1888
  NI1607-3  HEAD  3 2437  3 2438
  NI1608-3  HEAD  3 2516  3 2517
  NI1609-3  HEAD  3 2520  3 2521
  NI1612-2  HEAD  3 2340  3 2341
  NI1701-1  HEAD  3 2252  3 2253
  NI1702-1  HEAD  3 2184  3 2185
  NI1704-2  HEAD  3 1033  3 1034
  NI1705-2  HEAD  3 1198  3 1199
  NI1706-2  HEAD  3 1439  3 1440
  NI1707-1  HEAD  3 1356  3 1357
  NI1708-1  HEAD  3 2448  3 2449
  NI1711-1  HEAD  3 2530  3 2531
END continuous  FILEOUT  head.obs.csv

