# File generated by Flopy version 3.3.5 on 11/06/2021 at 11:40:47.
BEGIN options
  DIGITS  10
  PRINT_INPUT
END options

BEGIN continuous  FILEOUT  sfr_leakage.obs.csv
  leak-1  SFR  1
  leak-2  SFR  2
  leak-3  SFR  3
  leak-4  SFR  4
  leak-5  SFR  5
  leak-6  SFR  6
  leak-7  SFR  7
  leak-8  SFR  8
  leak-9  SFR  9
  leak-10  SFR  10
  leak-11  SFR  11
  leak-12  SFR  12
  leak-13  SFR  13
  leak-14  SFR  14
  leak-15  SFR  15
  leak-16  SFR  16
  leak-17  SFR  17
  leak-18  SFR  18
  leak-19  SFR  19
  leak-20  SFR  20
  leak-21  SFR  21
  leak-22  SFR  22
  leak-23  SFR  23
  leak-24  SFR  24
  leak-25  SFR  25
  leak-26  SFR  26
  leak-27  SFR  27
  leak-28  SFR  28
  leak-29  SFR  29
  leak-30  SFR  30
  leak-31  SFR  31
  leak-32  SFR  32
  leak-33  SFR  33
  leak-34  SFR  34
  leak-35  SFR  35
  leak-36  SFR  36
  leak-37  SFR  37
  leak-38  SFR  38
  leak-39  SFR  39
  leak-40  SFR  40
  leak-41  SFR  41
  leak-42  SFR  42
  leak-43  SFR  43
  leak-44  SFR  44
  leak-45  SFR  45
  leak-46  SFR  46
  leak-47  SFR  47
  leak-48  SFR  48
  leak-49  SFR  49
  leak-50  SFR  50
  leak-51  SFR  51
  leak-52  SFR  52
  leak-53  SFR  53
  leak-54  SFR  54
  leak-55  SFR  55
  leak-56  SFR  56
  leak-57  SFR  57
  leak-58  SFR  58
  leak-59  SFR  59
  leak-60  SFR  60
  leak-61  SFR  61
  leak-62  SFR  62
  leak-63  SFR  63
  leak-64  SFR  64
  leak-65  SFR  65
  leak-66  SFR  66
  leak-67  SFR  67
  leak-68  SFR  68
  leak-69  SFR  69
  leak-70  SFR  70
  leak-71  SFR  71
  leak-72  SFR  72
  leak-73  SFR  73
  leak-74  SFR  74
  leak-75  SFR  75
  leak-76  SFR  76
  leak-77  SFR  77
  leak-78  SFR  78
  leak-79  SFR  79
  leak-80  SFR  80
  leak-81  SFR  81
  leak-82  SFR  82
  leak-83  SFR  83
  leak-84  SFR  84
  leak-85  SFR  85
  leak-86  SFR  86
  leak-87  SFR  87
  leak-88  SFR  88
  leak-89  SFR  89
  leak-90  SFR  90
  leak-91  SFR  91
  leak-92  SFR  92
  leak-93  SFR  93
  leak-94  SFR  94
  leak-95  SFR  95
  leak-96  SFR  96
  leak-97  SFR  97
  leak-98  SFR  98
  leak-99  SFR  99
  leak-100  SFR  100
  leak-101  SFR  101
  leak-102  SFR  102
  leak-103  SFR  103
  leak-104  SFR  104
  leak-105  SFR  105
  leak-106  SFR  106
  leak-107  SFR  107
  leak-108  SFR  108
  leak-109  SFR  109
  leak-110  SFR  110
  leak-111  SFR  111
  leak-112  SFR  112
  leak-113  SFR  113
  leak-114  SFR  114
  leak-115  SFR  115
  leak-116  SFR  116
  leak-117  SFR  117
  leak-118  SFR  118
  leak-119  SFR  119
  leak-120  SFR  120
  leak-121  SFR  121
  leak-122  SFR  122
  leak-123  SFR  123
  leak-124  SFR  124
  leak-125  SFR  125
  leak-126  SFR  126
  leak-127  SFR  127
  leak-128  SFR  128
  leak-129  SFR  129
  leak-130  SFR  130
  leak-131  SFR  131
  leak-132  SFR  132
  leak-133  SFR  133
  leak-134  SFR  134
  leak-135  SFR  135
  leak-136  SFR  136
  leak-137  SFR  137
  leak-138  SFR  138
  leak-139  SFR  139
  leak-140  SFR  140
  leak-141  SFR  141
  leak-142  SFR  142
  leak-143  SFR  143
  leak-144  SFR  144
  leak-145  SFR  145
  leak-146  SFR  146
  leak-147  SFR  147
  leak-148  SFR  148
  leak-149  SFR  149
  leak-150  SFR  150
  leak-151  SFR  151
  leak-152  SFR  152
  leak-153  SFR  153
  leak-154  SFR  154
  leak-155  SFR  155
  leak-156  SFR  156
  leak-157  SFR  157
  leak-158  SFR  158
  leak-159  SFR  159
  leak-160  SFR  160
  leak-161  SFR  161
  leak-162  SFR  162
  leak-163  SFR  163
  leak-164  SFR  164
  leak-165  SFR  165
  leak-166  SFR  166
  leak-167  SFR  167
  leak-168  SFR  168
  leak-169  SFR  169
  leak-170  SFR  170
  leak-171  SFR  171
  leak-172  SFR  172
  leak-173  SFR  173
  leak-174  SFR  174
  leak-175  SFR  175
  leak-176  SFR  176
  leak-177  SFR  177
  leak-178  SFR  178
  leak-179  SFR  179
  leak-180  SFR  180
  leak-181  SFR  181
  leak-182  SFR  182
  leak-183  SFR  183
  leak-184  SFR  184
  leak-185  SFR  185
  leak-186  SFR  186
  leak-187  SFR  187
  leak-188  SFR  188
  leak-189  SFR  189
  leak-190  SFR  190
  leak-191  SFR  191
  leak-192  SFR  192
  leak-193  SFR  193
  leak-194  SFR  194
  leak-195  SFR  195
  leak-196  SFR  196
  leak-197  SFR  197
  leak-198  SFR  198
  leak-199  SFR  199
  leak-200  SFR  200
  leak-201  SFR  201
  leak-202  SFR  202
  leak-203  SFR  203
  leak-204  SFR  204
  leak-205  SFR  205
  leak-206  SFR  206
  leak-207  SFR  207
  leak-208  SFR  208
  leak-209  SFR  209
  leak-210  SFR  210
  leak-211  SFR  211
  leak-212  SFR  212
  leak-213  SFR  213
  leak-214  SFR  214
  leak-215  SFR  215
  leak-216  SFR  216
  leak-217  SFR  217
  leak-218  SFR  218
  leak-219  SFR  219
  leak-220  SFR  220
  leak-221  SFR  221
  leak-222  SFR  222
  leak-223  SFR  223
  leak-224  SFR  224
  leak-225  SFR  225
  leak-226  SFR  226
  leak-227  SFR  227
  leak-228  SFR  228
  leak-229  SFR  229
  leak-230  SFR  230
  leak-231  SFR  231
  leak-232  SFR  232
  leak-233  SFR  233
  leak-234  SFR  234
  leak-235  SFR  235
  leak-236  SFR  236
  leak-237  SFR  237
  leak-238  SFR  238
  leak-239  SFR  239
  leak-240  SFR  240
  leak-241  SFR  241
  leak-242  SFR  242
  leak-243  SFR  243
  leak-244  SFR  244
  leak-245  SFR  245
  leak-246  SFR  246
  leak-247  SFR  247
  leak-248  SFR  248
  leak-249  SFR  249
  leak-250  SFR  250
  leak-251  SFR  251
  leak-252  SFR  252
  leak-253  SFR  253
  leak-254  SFR  254
  leak-255  SFR  255
  leak-256  SFR  256
  leak-257  SFR  257
  leak-258  SFR  258
  leak-259  SFR  259
  leak-260  SFR  260
  leak-261  SFR  261
  leak-262  SFR  262
  leak-263  SFR  263
  leak-264  SFR  264
  leak-265  SFR  265
  leak-266  SFR  266
END continuous  FILEOUT  sfr_leakage.obs.csv

