# File generated by Flopy version 3.3.5 on 01/14/2022 at 23:25:35.
BEGIN options
  PRINT_INPUT
  PRINT_STAGE
  PRINT_FLOWS
  SAVE_FLOWS
  BUDGET  FILEOUT  hagfors_1.sfr.bud
  TS6  FILEIN  sfr_reach1_inflow.ts
  OBS6  FILEIN  hagfors_1.sfr.obs
  MAXIMUM_ITERATIONS  100
  UNIT_CONVERSION   86400.00000000
END options

BEGIN dimensions
  NREACHES  265
END dimensions

BEGIN packagedata
  1  1 2670       5.88000000       2.00000000       0.00100000     143.61000000       1.00000000      86.40000000  0.03  1       1.00000000  0
  2  1 2668       1.85000000       2.00000000       0.00100000     143.50000000       1.00000000      86.40000000  0.03  2       1.00000000  0
  3  1 2666       3.56000000       2.00000000       0.00100000     143.45000000       1.00000000      86.40000000  0.03  2       1.00000000  0
  4  1 2665       5.53000000       2.00000000       0.00100000     143.45000000       1.00000000      86.40000000  0.03  2       1.00000000  0
  5  1 2662       2.84000000       2.00000000       0.00100000     143.45000000       1.00000000      86.40000000  0.03  2       1.00000000  0
  6  1 2582       2.77000000       2.00000000       0.00100000     143.45000000       1.00000000      86.40000000  0.03  2       1.00000000  0
  7  1 2581       6.33000000       2.00000000       0.00100000     143.42000000       1.00000000      86.40000000  0.03  2       1.00000000  0
  8  1 2578       0.35000000       2.00000000       0.00100000     143.33000000       1.00000000      86.40000000  0.03  2       1.00000000  0
  9  1 2576       4.99000000       2.00000000       0.00100000     143.33000000       1.00000000      86.40000000  0.03  2       1.00000000  0
  10  1 2575       5.66000000       2.00000000       0.00100000     143.33000000       1.00000000      86.40000000  0.03  2       1.00000000  0
  11  1 2494       2.15000000       2.00000000       0.00100000     143.33000000       1.00000000      86.40000000  0.03  2       1.00000000  0
  12  1 2491       3.38000000       2.00000000       0.00100000     143.33000000       1.00000000      86.40000000  0.03  2       1.00000000  0
  13  1 2489       5.78000000       2.00000000       0.00100000     143.28000000       1.00000000      86.40000000  0.03  2       1.00000000  0
  14  1 2488       0.57000000       2.00000000       0.00100000     143.25000000       1.00000000      86.40000000  0.03  2       1.00000000  0
  15  1 2382       5.31000000       2.00000000       0.00100000     143.14000000       1.00000000      86.40000000  0.03  2       1.00000000  0
  16  1 2379       5.27000000       2.00000000       0.00100000     143.14000000       1.00000000      86.40000000  0.03  2       1.00000000  0
  17  1 2378       0.38000000       2.00000000       0.00100000     143.14000000       1.00000000      86.40000000  0.03  2       1.00000000  0
  18  1 2484       4.70000000       2.00000000       0.00100000     143.14000000       1.00000000      86.40000000  0.03  2       1.00000000  0
  19  1 2481       5.04000000       2.00000000       0.00100000     143.07000000       1.00000000      86.40000000  0.03  2       1.00000000  0
  20  1 2480       1.61000000       2.00000000       0.00100000     143.07000000       1.00000000      86.40000000  0.03  2       1.00000000  0
  21  1 2374       3.49000000       2.00000000       0.00100000     143.07000000       1.00000000      86.40000000  0.03  2       1.00000000  0
  22  1 2371       5.17000000       2.00000000       0.00100000     143.07000000       1.00000000      86.40000000  0.03  2       1.00000000  0
  23  1 2370       5.12000000       2.00000000       0.00100000     143.07000000       1.00000000      86.40000000  0.03  2       1.00000000  0
  24  1 2367       5.27000000       2.00000000       0.00100000     143.07000000       1.00000000      86.40000000  0.03  2       1.00000000  0
  25  1 2366       0.89000000       2.00000000       0.00100000     143.07000000       1.00000000      86.40000000  0.03  2       1.00000000  0
  26  1 2364       4.52000000       2.00000000       0.00100000     143.03000000       1.00000000      86.40000000  0.03  2       1.00000000  0
  27  1 2361       5.15000000       2.00000000       0.00100000     143.03000000       1.00000000      86.40000000  0.03  2       1.00000000  0
  28  1 2360       5.08000000       2.00000000       0.00100000     143.03000000       1.00000000      86.40000000  0.03  2       1.00000000  0
  29  1 2357       5.12000000       2.00000000       0.00100000     143.03000000       1.00000000      86.40000000  0.03  2       1.00000000  0
  30  1 2356       5.19000000       2.00000000       0.00100000     143.03000000       1.00000000      86.40000000  0.03  2       1.00000000  0
  31  1 2353       1.00000000       2.00000000       0.00100000     143.03000000       1.00000000      86.40000000  0.03  2       1.00000000  0
  32  1 2355       4.23000000       2.00000000       0.00100000     143.03000000       1.00000000      86.40000000  0.03  2       1.00000000  0
  33  1 2354       5.26000000       2.00000000       0.00100000     143.03000000       1.00000000      86.40000000  0.03  2       1.00000000  0
  34  1 2351       5.16000000       2.00000000       0.00100000     143.03000000       1.00000000      86.40000000  0.03  2       1.00000000  0
  35  1 2350       2.63000000       2.00000000       0.00100000     143.03000000       1.00000000      86.40000000  0.03  2       1.00000000  0
  36  1 2471       2.56000000       2.00000000       0.00100000     143.03000000       1.00000000      86.40000000  0.03  2       1.00000000  0
  37  1 2468       5.10000000       2.00000000       0.00100000     143.03000000       1.00000000      86.40000000  0.03  2       1.00000000  0
  38  1 2467       5.10000000       2.00000000       0.00100000     143.03000000       1.00000000      86.40000000  0.03  2       1.00000000  0
  39  1 2464       5.22000000       2.00000000       0.00100000     143.01000000       1.00000000      86.40000000  0.03  2       1.00000000  0
  40  1 2463       4.67000000       2.00000000       0.00100000     142.55000000       1.00000000      86.40000000  0.03  2       1.00000000  0
  41  1 2465       0.48000000       2.00000000       0.00100000     142.55000000       1.00000000      86.40000000  0.03  2       1.00000000  0
  42  1 2462       5.22000000       2.00000000       0.00100000     142.05000000       1.00000000      86.40000000  0.03  2       1.00000000  0
  43  1 2461       5.20000000       2.00000000       0.00100000     141.75000000       1.00000000      86.40000000  0.03  2       1.00000000  0
  44  1 2458       5.07000000       2.00000000       0.00100000     141.22000000       1.00000000      86.40000000  0.03  2       1.00000000  0
  45  1 2457       5.36000000       2.00000000       0.00100000     140.98000000       1.00000000      86.40000000  0.03  2       1.00000000  0
  46  1 2559       0.03000000       2.00000000       0.00100000     140.62000000       1.00000000      86.40000000  0.03  2       1.00000000  0
  47  1 2556       6.19000000       2.00000000       0.00100000     140.43000000       1.00000000      86.40000000  0.03  2       1.00000000  0
  48  1 2555       2.10000000       2.00000000       0.00100000     140.43000000       1.00000000      86.40000000  0.03  2       1.00000000  0
  49  1 2557       4.13000000       2.00000000       0.00100000     140.05000000       1.00000000      86.40000000  0.03  2       1.00000000  0
  50  1 2554       4.08000000       2.00000000       0.00100000     140.05000000       1.00000000      86.40000000  0.03  2       1.00000000  0
  51  1 2643       2.39000000       2.00000000       0.00100000     139.72000000       1.00000000      86.40000000  0.03  2       1.00000000  0
  52  1 2642       5.69000000       2.00000000       0.00100000     139.72000000       1.00000000      86.40000000  0.03  2       1.00000000  0
  53  1 2644       1.10000000       2.00000000       0.00100000     139.56000000       1.00000000      86.40000000  0.03  2       1.00000000  0
  54  1 2641       5.13000000       2.00000000       0.00100000     139.54000000       1.00000000      86.40000000  0.03  2       1.00000000  0
  55  1 2715       3.68000000       2.00000000       0.00100000     139.39000000       1.00000000      86.40000000  0.03  2       1.00000000  0
  56  1 2714       2.52000000       2.00000000       0.00100000     139.36000000       1.00000000      86.40000000  0.03  2       1.00000000  0
  57  1 2716       5.53000000       2.00000000       0.00100000     139.20000000       1.00000000      86.40000000  0.03  2       1.00000000  0
  58  1 2779       5.12000000       2.00000000       0.00100000     139.02000000       1.00000000      86.40000000  0.03  2       1.00000000  0
  59  1 2781       3.12000000       2.00000000       0.00100000     138.96000000       1.00000000      86.40000000  0.03  2       1.00000000  0
  60  1 2778       2.59000000       2.00000000       0.00100000     138.89000000       1.00000000      86.40000000  0.03  2       1.00000000  0
  61  1 2854       4.96000000       2.00000000       0.00100000     138.89000000       1.00000000      86.40000000  0.03  2       1.00000000  0
  62  1 2853       2.11000000       2.00000000       0.00100000     138.84000000       1.00000000      86.40000000  0.03  2       1.00000000  0
  63  1 2855       3.63000000       2.00000000       0.00100000     138.84000000       1.00000000      86.40000000  0.03  2       1.00000000  0
  64  1 2852       5.66000000       2.00000000       0.00100000     138.65000000       1.00000000      86.40000000  0.03  2       1.00000000  0
  65  1 2851       5.11000000       2.00000000       0.00100000     138.58000000       1.00000000      86.40000000  0.03  2       1.00000000  0
  66  1 2848       5.23000000       2.00000000       0.00100000     138.49000000       1.00000000      86.40000000  0.03  2       1.00000000  0
  67  1 2847       5.19000000       2.00000000       0.00100000     138.33000000       1.00000000      86.40000000  0.03  2       1.00000000  0
  68  1 2844       5.27000000       2.00000000       0.00100000     138.33000000       1.00000000      86.40000000  0.03  2       1.00000000  0
  69  1 2843       5.36000000       2.00000000       0.00100000     138.33000000       1.00000000      86.40000000  0.03  2       1.00000000  0
  70  1 2840       0.22000000       2.00000000       0.00100000     138.33000000       1.00000000      86.40000000  0.03  2       1.00000000  0
  71  1 2910       5.36000000       2.00000000       0.00100000     138.33000000       1.00000000      86.40000000  0.03  2       1.00000000  0
  72  1 2909       5.37000000       2.00000000       0.00100000     138.33000000       1.00000000      86.40000000  0.03  2       1.00000000  0
  73  1 2906       1.95000000       2.00000000       0.00100000     138.33000000       1.00000000      86.40000000  0.03  2       1.00000000  0
  74  1 2908       3.39000000       2.00000000       0.00100000     138.33000000       1.00000000      86.40000000  0.03  2       1.00000000  0
  75  1 2907       5.27000000       2.00000000       0.00100000     138.33000000       1.00000000      86.40000000  0.03  2       1.00000000  0
  76  1 2904       5.27000000       2.00000000       0.00100000     138.33000000       1.00000000      86.40000000  0.03  2       1.00000000  0
  77  1 2903       1.86000000       2.00000000       0.00100000     138.33000000       1.00000000      86.40000000  0.03  2       1.00000000  0
  78  1 2961       3.41000000       2.00000000       0.00100000     138.33000000       1.00000000      86.40000000  0.03  2       1.00000000  0
  79  1 2958       5.21000000       2.00000000       0.00100000     138.33000000       1.00000000      86.40000000  0.03  2       1.00000000  0
  80  1 2957       5.37000000       2.00000000       0.00100000     138.33000000       1.00000000      86.40000000  0.03  2       1.00000000  0
  81  1 2954       5.05000000       2.00000000       0.00100000     138.33000000       1.00000000      86.40000000  0.03  2       1.00000000  0
  82  1 2953       6.74000000       2.00000000       0.00100000     138.33000000       1.00000000      86.40000000  0.03  2       1.00000000  0
  83  1 2950       1.10000000       2.00000000       0.00100000     138.33000000       1.00000000      86.40000000  0.03  2       1.00000000  0
  84  1 2898       5.97000000       2.00000000       0.00100000     138.33000000       1.00000000      86.40000000  0.03  2       1.00000000  0
  85  1 2897       1.10000000       2.00000000       0.00100000     138.24000000       1.00000000      86.40000000  0.03  2       1.00000000  0
  86  1 2895       5.97000000       2.00000000       0.00100000     138.24000000       1.00000000      86.40000000  0.03  2       1.00000000  0
  87  1 2892       1.10000000       2.00000000       0.00100000     137.98000000       1.00000000      86.40000000  0.03  2       1.00000000  0
  88  1 2831       5.97000000       2.00000000       0.00100000     137.98000000       1.00000000      86.40000000  0.03  2       1.00000000  0
  89  1 2830       1.10000000       2.00000000       0.00100000     137.56000000       1.00000000      86.40000000  0.03  2       1.00000000  0
  90  1 2828       5.97000000       2.00000000       0.00100000     137.56000000       1.00000000      86.40000000  0.03  2       1.00000000  0
  91  1 2825       1.10000000       2.00000000       0.00100000     137.21000000       1.00000000      86.40000000  0.03  2       1.00000000  0
  92  1 2764       5.97000000       2.00000000       0.00100000     137.21000000       1.00000000      86.40000000  0.03  2       1.00000000  0
  93  1 2763       1.10000000       2.00000000       0.00100000     137.20000000       1.00000000      86.40000000  0.03  2       1.00000000  0
  94  1 2761       6.36000000       2.00000000       0.00100000     137.11000000       1.00000000      86.40000000  0.03  2       1.00000000  0
  95  1 2701       2.44000000       2.00000000       0.00100000     136.90000000       1.00000000      86.40000000  0.03  2       1.00000000  0
  96  1 2698       3.73000000       2.00000000       0.00100000     136.63000000       1.00000000      86.40000000  0.03  2       1.00000000  0
  97  1 2696       5.68000000       2.00000000       0.00100000     136.63000000       1.00000000      86.40000000  0.03  2       1.00000000  0
  98  1 2616       1.72000000       2.00000000       0.00100000     136.63000000       1.00000000      86.40000000  0.03  2       1.00000000  0
  99  1 2615       4.65000000       2.00000000       0.00100000     136.63000000       1.00000000      86.40000000  0.03  2       1.00000000  0
  100  1 2613       5.69000000       2.00000000       0.00100000     136.63000000       1.00000000      86.40000000  0.03  2       1.00000000  0
  101  1 2527       6.10000000       2.00000000       0.00100000     136.63000000       1.00000000      86.40000000  0.03  2       1.00000000  0
  102  1 2525       3.66000000       2.00000000       0.00100000     136.63000000       1.00000000      86.40000000  0.03  2       1.00000000  0
  103  1 2526       7.31000000       2.00000000       0.00100000     136.63000000       1.00000000      86.40000000  0.03  2       1.00000000  0
  104  1 2529       1.95000000       2.00000000       0.00100000     136.63000000       1.00000000      86.40000000  0.03  2       1.00000000  0
  105  1 2421       5.27000000       2.00000000       0.00100000     136.63000000       1.00000000      86.40000000  0.03  2       1.00000000  0
  106  1 2419       3.56000000       2.00000000       0.00100000     136.63000000       1.00000000      86.40000000  0.03  2       1.00000000  0
  107  1 2420       2.65000000       2.00000000       0.00100000     136.63000000       1.00000000      86.40000000  0.03  2       1.00000000  0
  108  1 2314       5.88000000       2.00000000       0.00100000     136.60000000       1.00000000      86.40000000  0.03  2       1.00000000  0
  109  1 2312       5.00000000       2.00000000       0.00100000     136.49000000       1.00000000      86.40000000  0.03  2       1.00000000  0
  110  1 2244       5.41000000       2.00000000       0.00100000     136.36000000       1.00000000      86.40000000  0.03  2       1.00000000  0
  111  1 2242       5.00000000       2.00000000       0.00100000     136.30000000       1.00000000      86.40000000  0.03  2       1.00000000  0
  112  1 2179       5.05000000       2.00000000       0.00100000     136.30000000       1.00000000      86.40000000  0.03  2       1.00000000  0
  113  1 2177       5.02000000       2.00000000       0.00100000     136.30000000       1.00000000      86.40000000  0.03  2       1.00000000  0
  114  1 2110       2.49000000       2.00000000       0.00100000     136.30000000       1.00000000      86.40000000  0.03  2       1.00000000  0
  115  1 2109       3.16000000       2.00000000       0.00100000     136.30000000       1.00000000      86.40000000  0.03  2       1.00000000  0
  116  1 2107       5.91000000       2.00000000       0.00100000     136.28000000       1.00000000      86.40000000  0.03  2       1.00000000  0
  117  1 2033       0.86000000       2.00000000       0.00100000     136.28000000       1.00000000      86.40000000  0.03  2       1.00000000  0
  118  1 2030       5.46000000       2.00000000       0.00100000     136.05000000       1.00000000      86.40000000  0.03  2       1.00000000  0
  119  1 2028       2.94000000       2.00000000       0.00100000     136.05000000       1.00000000      86.40000000  0.03  2       1.00000000  0
  120  1 2027       3.27000000       2.00000000       0.00100000     135.98000000       1.00000000      86.40000000  0.03  2       1.00000000  0
  121  1 1958       4.95000000       2.00000000       0.00100000     135.90000000       1.00000000      86.40000000  0.03  2       1.00000000  0
  122  1 1959       1.16000000       2.00000000       0.00100000     135.90000000       1.00000000      86.40000000  0.03  2       1.00000000  0
  123  1 1957       5.14000000       2.00000000       0.00100000     135.90000000       1.00000000      86.40000000  0.03  2       1.00000000  0
  124  1 1960       5.14000000       2.00000000       0.00100000     135.89000000       1.00000000      86.40000000  0.03  2       1.00000000  0
  125  1 1961       4.28000000       2.00000000       0.00100000     135.89000000       1.00000000      86.40000000  0.03  2       1.00000000  0
  126  1 1885       1.19000000       2.00000000       0.00100000     135.89000000       1.00000000      86.40000000  0.03  2       1.00000000  0
  127  1 1888       5.35000000       2.00000000       0.00100000     135.88000000       1.00000000      86.40000000  0.03  2       1.00000000  0
  128  1 1886       5.25000000       2.00000000       0.00100000     135.64000000       1.00000000      86.40000000  0.03  2       1.00000000  0
  129  1 1812       6.67000000       2.00000000       0.00100000     135.64000000       1.00000000      86.40000000  0.03  2       1.00000000  0
  130  1 1809       5.14000000       2.00000000       0.00100000     135.56000000       1.00000000      86.40000000  0.03  2       1.00000000  0
  131  1 1808       5.36000000       2.00000000       0.00100000     135.56000000       1.00000000      86.40000000  0.03  2       1.00000000  0
  132  1 1805       5.27000000       2.00000000       0.00100000     135.47000000       1.00000000      86.40000000  0.03  2       1.00000000  0
  133  1 1804       2.51000000       2.00000000       0.00100000     135.47000000       1.00000000      86.40000000  0.03  2       1.00000000  0
  134  1 1802       4.98000000       2.00000000       0.00100000     135.44000000       1.00000000      86.40000000  0.03  2       1.00000000  0
  135  1 1799       1.33000000       2.00000000       0.00100000     135.44000000       1.00000000      86.40000000  0.03  2       1.00000000  0
  136  1 1715       5.75000000       2.00000000       0.00100000     135.38000000       1.00000000      86.40000000  0.03  2       1.00000000  0
  137  1 1713       6.10000000       2.00000000       0.00100000     135.36000000       1.00000000      86.40000000  0.03  2       1.00000000  0
  138  1 1716       5.04000000       2.00000000       0.00100000     135.36000000       1.00000000      86.40000000  0.03  2       1.00000000  0
  139  1 1717       5.64000000       2.00000000       0.00100000     135.32000000       1.00000000      86.40000000  0.03  2       1.00000000  0
  140  1 1720       1.58000000       2.00000000       0.00100000     135.32000000       1.00000000      86.40000000  0.03  2       1.00000000  0
  141  1 1605       5.23000000       2.00000000       0.00100000     135.32000000       1.00000000      86.40000000  0.03  2       1.00000000  0
  142  1 1603       3.31000000       2.00000000       0.00100000     135.32000000       1.00000000      86.40000000  0.03  2       1.00000000  0
  143  1 1600       4.32000000       2.00000000       0.00100000     135.32000000       1.00000000      86.40000000  0.03  2       1.00000000  0
  144  1 1499       1.98000000       2.00000000       0.00100000     135.32000000       1.00000000      86.40000000  0.03  2       1.00000000  0
  145  1 1498       5.29000000       2.00000000       0.00100000     135.32000000       1.00000000      86.40000000  0.03  2       1.00000000  0
  146  1 1495       5.29000000       2.00000000       0.00100000     135.32000000       1.00000000      86.40000000  0.03  2       1.00000000  0
  147  1 1494       1.75000000       2.00000000       0.00100000     135.32000000       1.00000000      86.40000000  0.03  2       1.00000000  0
  148  1 1595       3.87000000       2.00000000       0.00100000     135.28000000       1.00000000      86.40000000  0.03  2       1.00000000  0
  149  1 1592       5.61000000       2.00000000       0.00100000     135.28000000       1.00000000      86.40000000  0.03  2       1.00000000  0
  150  1 1594       5.53000000       2.00000000       0.00100000     135.26000000       1.00000000      86.40000000  0.03  2       1.00000000  0
  151  1 1709       5.27000000       2.00000000       0.00100000     135.26000000       1.00000000      86.40000000  0.03  2       1.00000000  0
  152  1 1711       5.39000000       2.00000000       0.00100000     135.26000000       1.00000000      86.40000000  0.03  2       1.00000000  0
  153  1 1710       5.19000000       2.00000000       0.00100000     135.26000000       1.00000000      86.40000000  0.03  2       1.00000000  0
  154  1 1707       5.44000000       2.00000000       0.00100000     135.21000000       1.00000000      86.40000000  0.03  2       1.00000000  0
  155  1 1706       3.75000000       2.00000000       0.00100000     135.13000000       1.00000000      86.40000000  0.03  2       1.00000000  0
  156  1 1704       2.44000000       2.00000000       0.00100000     135.06000000       1.00000000      86.40000000  0.03  2       1.00000000  0
  157  1 1701       5.40000000       2.00000000       0.00100000     135.06000000       1.00000000      86.40000000  0.03  2       1.00000000  0
  158  1 1700       2.32000000       2.00000000       0.00100000     135.06000000       1.00000000      86.40000000  0.03  2       1.00000000  0
  159  1 1702       3.40000000       2.00000000       0.00100000     135.06000000       1.00000000      86.40000000  0.03  2       1.00000000  0
  160  1 1699       5.27000000       2.00000000       0.00100000     135.06000000       1.00000000      86.40000000  0.03  2       1.00000000  0
  161  1 1698       5.05000000       2.00000000       0.00100000     135.06000000       1.00000000      86.40000000  0.03  2       1.00000000  0
  162  1 1695       5.01000000       2.00000000       0.00100000     135.06000000       1.00000000      86.40000000  0.03  2       1.00000000  0
  163  1 1694       5.04000000       2.00000000       0.00100000     135.05000000       1.00000000      86.40000000  0.03  2       1.00000000  0
  164  1 1691       5.06000000       2.00000000       0.00100000     135.05000000       1.00000000      86.40000000  0.03  2       1.00000000  0
  165  1 1690       5.01000000       2.00000000       0.00100000     135.05000000       1.00000000      86.40000000  0.03  2       1.00000000  0
  166  1 1687       5.04000000       2.00000000       0.00100000     135.00000000       1.00000000      86.40000000  0.03  2       1.00000000  0
  167  1 1686       5.09000000       2.00000000       0.00100000     134.97000000       1.00000000      86.40000000  0.03  2       1.00000000  0
  168  1 1683       5.10000000       2.00000000       0.00100000     134.97000000       1.00000000      86.40000000  0.03  2       1.00000000  0
  169  1 1682       5.21000000       2.00000000       0.00100000     134.97000000       1.00000000      86.40000000  0.03  2       1.00000000  0
  170  1 1679       2.82000000       2.00000000       0.00100000     134.97000000       1.00000000      86.40000000  0.03  2       1.00000000  0
  171  1 1677       2.67000000       2.00000000       0.00100000     134.90000000       1.00000000      86.40000000  0.03  2       1.00000000  0
  172  1 1676       5.48000000       2.00000000       0.00100000     134.90000000       1.00000000      86.40000000  0.03  2       1.00000000  0
  173  1 1673       3.41000000       2.00000000       0.00100000     134.90000000       1.00000000      86.40000000  0.03  2       1.00000000  0
  174  1 1582       2.35000000       2.00000000       0.00100000     134.89000000       1.00000000      86.40000000  0.03  2       1.00000000  0
  175  1 1581       5.59000000       2.00000000       0.00100000     134.77000000       1.00000000      86.40000000  0.03  2       1.00000000  0
  176  1 1578       3.34000000       2.00000000       0.00100000     134.77000000       1.00000000      86.40000000  0.03  2       1.00000000  0
  177  1 1576       2.48000000       2.00000000       0.00100000     134.77000000       1.00000000      86.40000000  0.03  2       1.00000000  0
  178  1 1575       5.24000000       2.00000000       0.00100000     134.77000000       1.00000000      86.40000000  0.03  2       1.00000000  0
  179  1 1572       3.12000000       2.00000000       0.00100000     134.77000000       1.00000000      86.40000000  0.03  2       1.00000000  0
  180  1 1474       5.00000000       2.00000000       0.00100000     134.77000000       1.00000000      86.40000000  0.03  2       1.00000000  0
  181  1 1472       4.48000000       2.00000000       0.00100000     134.77000000       1.00000000      86.40000000  0.03  2       1.00000000  0
  182  1 1475       2.91000000       2.00000000       0.00100000     134.73000000       1.00000000      86.40000000  0.03  2       1.00000000  0
  183  1 1385       5.25000000       2.00000000       0.00100000     134.72000000       1.00000000      86.40000000  0.03  2       1.00000000  0
  184  1 1383       5.11000000       2.00000000       0.00100000     134.72000000       1.00000000      86.40000000  0.03  2       1.00000000  0
  185  1 1292       5.22000000       2.00000000       0.00100000     134.72000000       1.00000000      86.40000000  0.03  2       1.00000000  0
  186  1 1290       5.21000000       2.00000000       0.00100000     134.71000000       1.00000000      86.40000000  0.03  2       1.00000000  0
  187  1 1201       5.37000000       2.00000000       0.00100000     134.38000000       1.00000000      86.40000000  0.03  2       1.00000000  0
  188  1 1199       4.94000000       2.00000000       0.00100000     134.27000000       1.00000000      86.40000000  0.03  2       1.00000000  0
  189  1 1196       0.71000000       2.00000000       0.00100000     134.27000000       1.00000000      86.40000000  0.03  2       1.00000000  0
  190  1 1115       5.74000000       2.00000000       0.00100000     134.17000000       1.00000000      86.40000000  0.03  2       1.00000000  0
  191  1 1113       3.64000000       2.00000000       0.00100000     134.17000000       1.00000000      86.40000000  0.03  2       1.00000000  0
  192  1 1112       2.09000000       2.00000000       0.00100000     134.17000000       1.00000000      86.40000000  0.03  2       1.00000000  0
  193  1 1033       5.67000000       2.00000000       0.00100000     134.17000000       1.00000000      86.40000000  0.03  2       1.00000000  0
  194  1 1031       5.15000000       2.00000000       0.00100000     134.17000000       1.00000000      86.40000000  0.03  2       1.00000000  0
  195  1 951       1.08000000       2.00000000       0.00100000     134.17000000       1.00000000      86.40000000  0.03  2       1.00000000  0
  196  1 948       4.71000000       2.00000000       0.00100000     134.07000000       1.00000000      86.40000000  0.03  2       1.00000000  0
  197  1 946       3.16000000       2.00000000       0.00100000     134.07000000       1.00000000      86.40000000  0.03  2       1.00000000  0
  198  1 945       4.91000000       2.00000000       0.00100000     134.07000000       1.00000000      86.40000000  0.03  2       1.00000000  0
  199  1 867       2.05000000       2.00000000       0.00100000     134.07000000       1.00000000      86.40000000  0.03  2       1.00000000  0
  200  1 864       4.65000000       2.00000000       0.00100000     134.07000000       1.00000000      86.40000000  0.03  2       1.00000000  0
  201  1 862       3.52000000       2.00000000       0.00100000     134.07000000       1.00000000      86.40000000  0.03  2       1.00000000  0
  202  1 861       3.02000000       2.00000000       0.00100000     134.07000000       1.00000000      86.40000000  0.03  2       1.00000000  0
  203  1 783       4.76000000       2.00000000       0.00100000     134.07000000       1.00000000      86.40000000  0.03  2       1.00000000  0
  204  1 780       1.46000000       2.00000000       0.00100000     134.06000000       1.00000000      86.40000000  0.03  2       1.00000000  0
  205  1 778       6.54000000       2.00000000       0.00100000     134.06000000       1.00000000      86.40000000  0.03  2       1.00000000  0