# File generated by Flopy version 3.3.5 on 01/14/2022 at 23:25:35.
BEGIN options
  LENGTH_UNITS  meters
END options

BEGIN dimensions
  NLAY  1
  NCPL  3090
  NVERT  3422
END dimensions

BEGIN griddata
  top
    OPEN/CLOSE  'hagfors_1.disv_top.txt'  FACTOR  1.0
  botm
    OPEN/CLOSE  'hagfors_1.disv_botm.txt'  FACTOR  1.0
END griddata

BEGIN vertices
    OPEN/CLOSE  'hagfors_1.disv_vertices.txt'
END vertices

BEGIN cell2d
    OPEN/CLOSE  'hagfors_1.disv_cell2d.txt'
END cell2d

