# File generated by Flopy version 3.3.5 on 12/03/2021 at 16:59:58.
BEGIN options
  SAVE_FLOWS
END options

BEGIN griddata
  iconvert
    OPEN/CLOSE  'experimental.sto_iconvert.txt'  FACTOR  1
  ss  LAYERED
    OPEN/CLOSE  'experimental.sto_ss_layer1.txt'  FACTOR  1.0
    OPEN/CLOSE  'experimental.sto_ss_layer2.txt'  FACTOR  1.0
    OPEN/CLOSE  'experimental.sto_ss_layer3.txt'  FACTOR  1.0
  sy  LAYERED
    OPEN/CLOSE  'experimental.sto_sy_layer1.txt'  FACTOR  1.0
    OPEN/CLOSE  'experimental.sto_sy_layer2.txt'  FACTOR  1.0
    OPEN/CLOSE  'experimental.sto_sy_layer3.txt'  FACTOR  1.0
END griddata

BEGIN period  1
  STEADY-STATE
END period  1

BEGIN period  2
  TRANSIENT
END period  2

