# File generated by Flopy version 3.3.5 on 12/02/2021 at 15:37:06.
BEGIN options
  DIGITS  10
  PRINT_INPUT
END options

BEGIN continuous  FILEOUT  head.obs.csv
    OPEN/CLOSE  'experimental.obs_continuous_head.obs.csv.txt'
END continuous  FILEOUT  head.obs.csv

