# File generated by Flopy version 3.3.5 on 12/03/2021 at 16:59:59.
BEGIN options
  FIXED_CELL
  auxiliary  multiplier
  AUXMULTNAME  multiplier
  BOUNDNAMES
  PRINT_INPUT
  PRINT_FLOWS
  SAVE_FLOWS
  TS6  FILEIN  rch.ts
END options

BEGIN dimensions
  MAXBOUND  3603
END dimensions

BEGIN period  1
    OPEN/CLOSE  'experimental.rch_stress_period_data_1.txt'
END period  1

BEGIN period  2
    OPEN/CLOSE  'experimental.rch_stress_period_data_2.txt'
END period  2

