# File generated by Flopy version 3.3.5 on 12/02/2021 at 15:37:06.
BEGIN options
  BOUNDNAMES
  PRINT_INPUT
  PRINT_FLOWS
  SAVE_FLOWS
END options

BEGIN dimensions
  MAXBOUND  180
END dimensions

BEGIN period  1
    OPEN/CLOSE  'experimental.ghb_stress_period_data_1.txt'
END period  1

