# File generated by Flopy version 3.3.5 on 12/02/2021 at 15:37:06.
BEGIN griddata
  strt
    OPEN/CLOSE  'experimental.ic_strt.txt'  FACTOR  1.0
END griddata

