# File generated by Flopy version 3.3.5 on 12/03/2021 at 16:59:58.
BEGIN options
  DIGITS  10
  PRINT_INPUT
END options

BEGIN continuous  FILEOUT  sfr_leakage.obs.csv
    OPEN/CLOSE  'experimental_leakage.sfr.obs_continuous_sfr_leakage.obs.csv.txt'
END continuous  FILEOUT  sfr_leakage.obs.csv

