# File generated by Flopy version 3.3.5 on 12/03/2021 at 16:59:58.
BEGIN options
  TIME_UNITS  days
END options

BEGIN dimensions
  NPER  2
END dimensions

BEGIN perioddata
       1.00000000  1       1.00000000
    1460.00000000  48       1.00000000
END perioddata

