# File generated by Flopy version 3.3.5 on 11/09/2021 at 14:54:56.
BEGIN options
  PRINT_INPUT
  PRINT_STAGE
  PRINT_FLOWS
  SAVE_FLOWS
  BUDGET  FILEOUT  experimental.sfr.bud
  OBS6  FILEIN  experimental_leakage.sfr.obs
  MAXIMUM_ITERATIONS  100
  UNIT_CONVERSION   86400.00000000
END options

BEGIN dimensions
  NREACHES  270
END dimensions

BEGIN packagedata
  1  1 3210       5.88000000       2.00000000       0.00100000     143.61000000       1.00000000      86.40000000  0.03  1       1.00000000  0
  2  1 3208       1.85000000       2.00000000       0.00100000     143.50000000       1.00000000      86.40000000  0.03  2       1.00000000  0
  3  1 3206       3.56000000       2.00000000       0.00100000     143.45000000       1.00000000      86.40000000  0.03  2       1.00000000  0
  4  1 3205       5.53000000       2.00000000       0.00100000     143.45000000       1.00000000      86.40000000  0.03  2       1.00000000  0
  5  1 3202       2.84000000       2.00000000       0.00100000     143.45000000       1.00000000      86.40000000  0.03  2       1.00000000  0
  6  1 3094       2.77000000       2.00000000       0.00100000     143.45000000       1.00000000      86.40000000  0.03  2       1.00000000  0
  7  1 3093       6.33000000       2.00000000       0.00100000     143.42000000       1.00000000      86.40000000  0.03  2       1.00000000  0
  8  1 3090       0.35000000       2.00000000       0.00100000     143.33000000       1.00000000      86.40000000  0.03  2       1.00000000  0
  9  1 3088       4.99000000       2.00000000       0.00100000     143.33000000       1.00000000      86.40000000  0.03  2       1.00000000  0
  10  1 3087       5.66000000       2.00000000       0.00100000     143.33000000       1.00000000      86.40000000  0.03  2       1.00000000  0
  11  1 2975       2.15000000       2.00000000       0.00100000     143.33000000       1.00000000      86.40000000  0.03  2       1.00000000  0
  12  1 2972       3.38000000       2.00000000       0.00100000     143.33000000       1.00000000      86.40000000  0.03  2       1.00000000  0
  13  1 2970       5.78000000       2.00000000       0.00100000     143.28000000       1.00000000      86.40000000  0.03  2       1.00000000  0
  14  1 2969       0.57000000       2.00000000       0.00100000     143.25000000       1.00000000      86.40000000  0.03  2       1.00000000  0
  15  1 2817       5.31000000       2.00000000       0.00100000     143.14000000       1.00000000      86.40000000  0.03  2       1.00000000  0
  16  1 2814       5.27000000       2.00000000       0.00100000     143.14000000       1.00000000      86.40000000  0.03  2       1.00000000  0
  17  1 2813       0.38000000       2.00000000       0.00100000     143.14000000       1.00000000      86.40000000  0.03  2       1.00000000  0
  18  1 2965       4.70000000       2.00000000       0.00100000     143.14000000       1.00000000      86.40000000  0.03  2       1.00000000  0
  19  1 2962       5.04000000       2.00000000       0.00100000     143.07000000       1.00000000      86.40000000  0.03  2       1.00000000  0
  20  1 2961       1.61000000       2.00000000       0.00100000     143.07000000       1.00000000      86.40000000  0.03  2       1.00000000  0
  21  1 2809       3.49000000       2.00000000       0.00100000     143.07000000       1.00000000      86.40000000  0.03  2       1.00000000  0
  22  1 2806       5.17000000       2.00000000       0.00100000     143.07000000       1.00000000      86.40000000  0.03  2       1.00000000  0
  23  1 2805       5.12000000       2.00000000       0.00100000     143.07000000       1.00000000      86.40000000  0.03  2       1.00000000  0
  24  1 2802       5.27000000       2.00000000       0.00100000     143.07000000       1.00000000      86.40000000  0.03  2       1.00000000  0
  25  1 2801       0.89000000       2.00000000       0.00100000     143.07000000       1.00000000      86.40000000  0.03  2       1.00000000  0
  26  1 2799       4.52000000       2.00000000       0.00100000     143.03000000       1.00000000      86.40000000  0.03  2       1.00000000  0
  27  1 2796       5.15000000       2.00000000       0.00100000     143.03000000       1.00000000      86.40000000  0.03  2       1.00000000  0
  28  1 2795       5.08000000       2.00000000       0.00100000     143.03000000       1.00000000      86.40000000  0.03  2       1.00000000  0
  29  1 2792       5.12000000       2.00000000       0.00100000     143.03000000       1.00000000      86.40000000  0.03  2       1.00000000  0
  30  1 2791       5.19000000       2.00000000       0.00100000     143.03000000       1.00000000      86.40000000  0.03  2       1.00000000  0
  31  1 2788       1.00000000       2.00000000       0.00100000     143.03000000       1.00000000      86.40000000  0.03  2       1.00000000  0
  32  1 2790       4.23000000       2.00000000       0.00100000     143.03000000       1.00000000      86.40000000  0.03  2       1.00000000  0
  33  1 2789       5.26000000       2.00000000       0.00100000     143.03000000       1.00000000      86.40000000  0.03  2       1.00000000  0
  34  1 2786       5.16000000       2.00000000       0.00100000     143.03000000       1.00000000      86.40000000  0.03  2       1.00000000  0
  35  1 2785       2.63000000       2.00000000       0.00100000     143.03000000       1.00000000      86.40000000  0.03  2       1.00000000  0
  36  1 2952       2.56000000       2.00000000       0.00100000     143.03000000       1.00000000      86.40000000  0.03  2       1.00000000  0
  37  1 2949       5.10000000       2.00000000       0.00100000     143.03000000       1.00000000      86.40000000  0.03  2       1.00000000  0
  38  1 2948       5.10000000       2.00000000       0.00100000     143.03000000       1.00000000      86.40000000  0.03  2       1.00000000  0
  39  1 2945       5.22000000       2.00000000       0.00100000     143.01000000       1.00000000      86.40000000  0.03  2       1.00000000  0
  40  1 2944       4.67000000       2.00000000       0.00100000     142.55000000       1.00000000      86.40000000  0.03  2       1.00000000  0
  41  1 2946       0.48000000       2.00000000       0.00100000     142.55000000       1.00000000      86.40000000  0.03  2       1.00000000  0
  42  1 2943       5.22000000       2.00000000       0.00100000     142.05000000       1.00000000      86.40000000  0.03  2       1.00000000  0
  43  1 2942       5.20000000       2.00000000       0.00100000     141.75000000       1.00000000      86.40000000  0.03  2       1.00000000  0
  44  1 2939       5.07000000       2.00000000       0.00100000     141.22000000       1.00000000      86.40000000  0.03  2       1.00000000  0
  45  1 2938       5.36000000       2.00000000       0.00100000     140.98000000       1.00000000      86.40000000  0.03  2       1.00000000  0
  46  1 3071       0.03000000       2.00000000       0.00100000     140.62000000       1.00000000      86.40000000  0.03  2       1.00000000  0
  47  1 3068       6.19000000       2.00000000       0.00100000     140.43000000       1.00000000      86.40000000  0.03  2       1.00000000  0
  48  1 3067       2.10000000       2.00000000       0.00100000     140.43000000       1.00000000      86.40000000  0.03  2       1.00000000  0
  49  1 3069       4.13000000       2.00000000       0.00100000     140.05000000       1.00000000      86.40000000  0.03  2       1.00000000  0
  50  1 3066       4.08000000       2.00000000       0.00100000     140.05000000       1.00000000      86.40000000  0.03  2       1.00000000  0
  51  1 3183       2.39000000       2.00000000       0.00100000     139.72000000       1.00000000      86.40000000  0.03  2       1.00000000  0
  52  1 3182       5.69000000       2.00000000       0.00100000     139.72000000       1.00000000      86.40000000  0.03  2       1.00000000  0
  53  1 3184       1.10000000       2.00000000       0.00100000     139.56000000       1.00000000      86.40000000  0.03  2       1.00000000  0
  54  1 3181       5.13000000       2.00000000       0.00100000     139.54000000       1.00000000      86.40000000  0.03  2       1.00000000  0
  55  1 3262       3.68000000       2.00000000       0.00100000     139.39000000       1.00000000      86.40000000  0.03  2       1.00000000  0
  56  1 3261       2.52000000       2.00000000       0.00100000     139.36000000       1.00000000      86.40000000  0.03  2       1.00000000  0
  57  1 3263       5.53000000       2.00000000       0.00100000     139.20000000       1.00000000      86.40000000  0.03  2       1.00000000  0
  58  1 3330       5.12000000       2.00000000       0.00100000     139.02000000       1.00000000      86.40000000  0.03  2       1.00000000  0
  59  1 3332       3.12000000       2.00000000       0.00100000     138.96000000       1.00000000      86.40000000  0.03  2       1.00000000  0
  60  1 3329       2.59000000       2.00000000       0.00100000     138.89000000       1.00000000      86.40000000  0.03  2       1.00000000  0
  61  1 3410       4.96000000       2.00000000       0.00100000     138.89000000       1.00000000      86.40000000  0.03  2       1.00000000  0
  62  1 3409       2.11000000       2.00000000       0.00100000     138.84000000       1.00000000      86.40000000  0.03  2       1.00000000  0
  63  1 3411       3.63000000       2.00000000       0.00100000     138.84000000       1.00000000      86.40000000  0.03  2       1.00000000  0
  64  1 3408       5.66000000       2.00000000       0.00100000     138.65000000       1.00000000      86.40000000  0.03  2       1.00000000  0
  65  1 3407       5.11000000       2.00000000       0.00100000     138.58000000       1.00000000      86.40000000  0.03  2       1.00000000  0
  66  1 3404       5.23000000       2.00000000       0.00100000     138.49000000       1.00000000      86.40000000  0.03  2       1.00000000  0
  67  1 3403       5.19000000       2.00000000       0.00100000     138.33000000       1.00000000      86.40000000  0.03  2       1.00000000  0
  68  1 3400       5.27000000       2.00000000       0.00100000     138.33000000       1.00000000      86.40000000  0.03  2       1.00000000  0
  69  1 3399       5.36000000       2.00000000       0.00100000     138.33000000       1.00000000      86.40000000  0.03  2       1.00000000  0
  70  1 3396       0.22000000       2.00000000       0.00100000     138.33000000       1.00000000      86.40000000  0.03  2       1.00000000  0
  71  1 3479       5.36000000       2.00000000       0.00100000     138.33000000       1.00000000      86.40000000  0.03  2       1.00000000  0
  72  1 3478       5.37000000       2.00000000       0.00100000     138.33000000       1.00000000      86.40000000  0.03  2       1.00000000  0
  73  1 3475       1.95000000       2.00000000       0.00100000     138.33000000       1.00000000      86.40000000  0.03  2       1.00000000  0
  74  1 3477       3.39000000       2.00000000       0.00100000     138.33000000       1.00000000      86.40000000  0.03  2       1.00000000  0
  75  1 3476       5.27000000       2.00000000       0.00100000     138.33000000       1.00000000      86.40000000  0.03  2       1.00000000  0
  76  1 3473       5.27000000       2.00000000       0.00100000     138.33000000       1.00000000      86.40000000  0.03  2       1.00000000  0
  77  1 3472       1.86000000       2.00000000       0.00100000     138.33000000       1.00000000      86.40000000  0.03  2       1.00000000  0
  78  1 3543       3.41000000       2.00000000       0.00100000     138.33000000       1.00000000      86.40000000  0.03  2       1.00000000  0
  79  1 3540       5.21000000       2.00000000       0.00100000     138.33000000       1.00000000      86.40000000  0.03  2       1.00000000  0
  80  1 3539       5.37000000       2.00000000       0.00100000     138.33000000       1.00000000      86.40000000  0.03  2       1.00000000  0
  81  1 3536       5.05000000       2.00000000       0.00100000     138.33000000       1.00000000      86.40000000  0.03  2       1.00000000  0
  82  1 3535       6.74000000       2.00000000       0.00100000     138.33000000       1.00000000      86.40000000  0.03  2       1.00000000  0
  83  1 3532       1.10000000       2.00000000       0.00100000     138.33000000       1.00000000      86.40000000  0.03  2       1.00000000  0
  84  1 3467       5.97000000       2.00000000       0.00100000     138.33000000       1.00000000      86.40000000  0.03  2       1.00000000  0
  85  1 3466       1.10000000       2.00000000       0.00100000     138.24000000       1.00000000      86.40000000  0.03  2       1.00000000  0
  86  1 3464       5.97000000       2.00000000       0.00100000     138.24000000       1.00000000      86.40000000  0.03  2       1.00000000  0
  87  1 3461       1.10000000       2.00000000       0.00100000     137.98000000       1.00000000      86.40000000  0.03  2       1.00000000  0
  88  1 3387       5.97000000       2.00000000       0.00100000     137.98000000       1.00000000      86.40000000  0.03  2       1.00000000  0
  89  1 3386       1.10000000       2.00000000       0.00100000     137.56000000       1.00000000      86.40000000  0.03  2       1.00000000  0
  90  1 3384       5.97000000       2.00000000       0.00100000     137.56000000       1.00000000      86.40000000  0.03  2       1.00000000  0
  91  1 3381       1.10000000       2.00000000       0.00100000     137.21000000       1.00000000      86.40000000  0.03  2       1.00000000  0
  92  1 3315       5.97000000       2.00000000       0.00100000     137.21000000       1.00000000      86.40000000  0.03  2       1.00000000  0
  93  1 3314       1.10000000       2.00000000       0.00100000     137.20000000       1.00000000      86.40000000  0.03  2       1.00000000  0
  94  1 3312       6.36000000       2.00000000       0.00100000     137.11000000       1.00000000      86.40000000  0.03  2       1.00000000  0
  95  1 3248       2.44000000       2.00000000       0.00100000     136.90000000       1.00000000      86.40000000  0.03  2       1.00000000  0
  96  1 3245       3.73000000       2.00000000       0.00100000     136.63000000       1.00000000      86.40000000  0.03  2       1.00000000  0
  97  1 3243       5.68000000       2.00000000       0.00100000     136.63000000       1.00000000      86.40000000  0.03  2       1.00000000  0
  98  1 3140       1.72000000       2.00000000       0.00100000     136.63000000       1.00000000      86.40000000  0.03  2       1.00000000  0
  99  1 3137       4.65000000       2.00000000       0.00100000     136.63000000       1.00000000      86.40000000  0.03  2       1.00000000  0
  100  1 3132       5.69000000       2.00000000       0.00100000     136.63000000       1.00000000      86.40000000  0.03  2       1.00000000  0
  101  1 3012       6.10000000       2.00000000       0.00100000     136.63000000       1.00000000      86.40000000  0.03  2       1.00000000  0
  102  1 3010       3.66000000       2.00000000       0.00100000     136.63000000       1.00000000      86.40000000  0.03  2       1.00000000  0
  103  1 3011       7.31000000       2.00000000       0.00100000     136.63000000       1.00000000      86.40000000  0.03  2       1.00000000  0
  104  1 3017       1.95000000       2.00000000       0.00100000     136.63000000       1.00000000      86.40000000  0.03  2       1.00000000  0
  105  1 2866       5.27000000       2.00000000       0.00100000     136.63000000       1.00000000      86.40000000  0.03  2       1.00000000  0
  106  1 2864       3.56000000       2.00000000       0.00100000     136.63000000       1.00000000      86.40000000  0.03  2       1.00000000  0
  107  1 2865       2.65000000       2.00000000       0.00100000     136.63000000       1.00000000      86.40000000  0.03  2       1.00000000  0
  108  1 2709       2.50000000       2.00000000       0.00100000     136.63000000       1.00000000      86.40000000  0.03  2       1.00000000  0
  109  1 2707       3.38000000       2.00000000       0.00100000     136.57000000       1.00000000      86.40000000  0.03  2       1.00000000  0
  110  1 2705       5.00000000       2.00000000       0.00100000     136.49000000       1.00000000      86.40000000  0.03  2       1.00000000  0
  111  1 2606       5.41000000       2.00000000       0.00100000     136.36000000       1.00000000      86.40000000  0.03  2       1.00000000  0
  112  1 2604       5.00000000       2.00000000       0.00100000     136.30000000       1.00000000      86.40000000  0.03  2       1.00000000  0
  113  1 2534       5.05000000       2.00000000       0.00100000     136.30000000       1.00000000      86.40000000  0.03  2       1.00000000  0
  114  1 2532       5.02000000       2.00000000       0.00100000     136.30000000       1.00000000      86.40000000  0.03  2       1.00000000  0
  115  1 2449       2.49000000       2.00000000       0.00100000     136.30000000       1.00000000      86.40000000  0.03  2       1.00000000  0
  116  1 2448       3.16000000       2.00000000       0.00100000     136.30000000       1.00000000      86.40000000  0.03  2       1.00000000  0
  117  1 2446       5.91000000       2.00000000       0.00100000     136.28000000       1.00000000      86.40000000  0.03  2       1.00000000  0
  118  1 2353       0.86000000       2.00000000       0.00100000     136.28000000       1.00000000      86.40000000  0.03  2       1.00000000  0
  119  1 2350       5.46000000       2.00000000       0.00100000     136.05000000       1.00000000      86.40000000  0.03  2       1.00000000  0
  120  1 2348       2.94000000       2.00000000       0.00100000     136.05000000       1.00000000      86.40000000  0.03  2       1.00000000  0
  121  1 2347       3.27000000       2.00000000       0.00100000     135.98000000       1.00000000      86.40000000  0.03  2       1.00000000  0
  122  1 2271       4.95000000       2.00000000       0.00100000     135.90000000       1.00000000      86.40000000  0.03  2       1.00000000  0
  123  1 2272       1.16000000       2.00000000       0.00100000     135.90000000       1.00000000      86.40000000  0.03  2       1.00000000  0
  124  1 2270       5.14000000       2.00000000       0.00100000     135.90000000       1.00000000      86.40000000  0.03  2       1.00000000  0
  125  1 2273       5.14000000       2.00000000       0.00100000     135.89000000       1.00000000      86.40000000  0.03  2       1.00000000  0
  126  1 2274       4.28000000       2.00000000       0.00100000     135.89000000       1.00000000      86.40000000  0.03  2       1.00000000  0
  127  1 2185       1.19000000       2.00000000       0.00100000     135.89000000       1.00000000      86.40000000  0.03  2       1.00000000  0
  128  1 2188       5.35000000       2.00000000       0.00100000     135.88000000       1.00000000      86.40000000  0.03  2       1.00000000  0
  129  1 2186       5.25000000       2.00000000       0.00100000     135.64000000       1.00000000      86.40000000  0.03  2       1.00000000  0
  130  1 2093       6.67000000       2.00000000       0.00100000     135.64000000       1.00000000      86.40000000  0.03  2       1.00000000  0
  131  1 2090       5.14000000       2.00000000       0.00100000     135.56000000       1.00000000      86.40000000  0.03  2       1.00000000  0
  132  1 2089       5.36000000       2.00000000       0.00100000     135.56000000       1.00000000      86.40000000  0.03  2       1.00000000  0
  133  1 2086       5.27000000       2.00000000       0.00100000     135.47000000       1.00000000      86.40000000  0.03  2       1.00000000  0
  134  1 2085       2.51000000       2.00000000       0.00100000     135.47000000       1.00000000      86.40000000  0.03  2       1.00000000  0
  135  1 2083       4.98000000       2.00000000       0.00100000     135.44000000       1.00000000      86.40000000  0.03  2       1.00000000  0
  136  1 2080       1.33000000       2.00000000       0.00100000     135.44000000       1.00000000      86.40000000  0.03  2       1.00000000  0
  137  1 1971       5.75000000       2.00000000       0.00100000     135.38000000       1.00000000      86.40000000  0.03  2       1.00000000  0
  138  1 1969       6.10000000       2.00000000       0.00100000     135.36000000       1.00000000      86.40000000  0.03  2       1.00000000  0
  139  1 1972       5.04000000       2.00000000       0.00100000     135.36000000       1.00000000      86.40000000  0.03  2       1.00000000  0
  140  1 1973       5.64000000       2.00000000       0.00100000     135.32000000       1.00000000      86.40000000  0.03  2       1.00000000  0
  141  1 1976       1.58000000       2.00000000       0.00100000     135.32000000       1.00000000      86.40000000  0.03  2       1.00000000  0
  142  1 1836       5.23000000       2.00000000       0.00100000     135.32000000       1.00000000      86.40000000  0.03  2       1.00000000  0
  143  1 1831       0.45000000       2.00000000       0.00100000     135.32000000       1.00000000      86.40000000  0.03  2       1.00000000  0
  144  1 1833       2.86000000       2.00000000       0.00100000     135.32000000       1.00000000      86.40000000  0.03  2       1.00000000  0
  145  1 1828       4.32000000       2.00000000       0.00100000     135.32000000       1.00000000      86.40000000  0.03  2       1.00000000  0
  146  1 1684       1.98000000       2.00000000       0.00100000     135.32000000       1.00000000      86.40000000  0.03  2       1.00000000  0
  147  1 1683       5.29000000       2.00000000       0.00100000     135.32000000       1.00000000      86.40000000  0.03  2       1.00000000  0
  148  1 1680       5.29000000       2.00000000       0.00100000     135.32000000       1.00000000      86.40000000  0.03  2       1.00000000  0
  149  1 1679       1.75000000       2.00000000       0.00100000     135.32000000       1.00000000      86.40000000  0.03  2       1.00000000  0
  150  1 1823       3.87000000       2.00000000       0.00100000     135.28000000       1.00000000      86.40000000  0.03  2       1.00000000  0
  151  1 1820       5.61000000       2.00000000       0.00100000     135.28000000       1.00000000      86.40000000  0.03  2       1.00000000  0
  152  1 1822       5.53000000       2.00000000       0.00100000     135.26000000       1.00000000      86.40000000  0.03  2       1.00000000  0
  153  1 1965       5.27000000       2.00000000       0.00100000     135.26000000       1.00000000      86.40000000  0.03  2       1.00000000  0
  154  1 1967       5.39000000       2.00000000       0.00100000     135.26000000       1.00000000      86.40000000  0.03  2       1.00000000  0
  155  1 1966       5.19000000       2.00000000       0.00100000     135.26000000       1.00000000      86.40000000  0.03  2       1.00000000  0
  156  1 1963       5.44000000       2.00000000       0.00100000     135.21000000       1.00000000      86.40000000  0.03  2       1.00000000  0
  157  1 1962       3.75000000       2.00000000       0.00100000     135.13000000       1.00000000      86.40000000  0.03  2       1.00000000  0
  158  1 1960       2.44000000       2.00000000       0.00100000     135.06000000       1.00000000      86.40000000  0.03  2       1.00000000  0
  159  1 1957       2.52000000       2.00000000       0.00100000     135.01000000       1.00000000      86.40000000  0.03  2       1.00000000  0
  160  1 1956       2.88000000       2.00000000       0.00100000     135.01000000       1.00000000      86.40000000  0.03  2       1.00000000  0
  161  1 1953       2.32000000       2.00000000       0.00100000     135.01000000       1.00000000      86.40000000  0.03  2       1.00000000  0
  162  1 1958       3.40000000       2.00000000       0.00100000     135.01000000       1.00000000      86.40000000  0.03  2       1.00000000  0
  163  1 1952       5.27000000       2.00000000       0.00100000     135.01000000       1.00000000      86.40000000  0.03  2       1.00000000  0
  164  1 1951       5.05000000       2.00000000       0.00100000     135.01000000       1.00000000      86.40000000  0.03  2       1.00000000  0
  165  1 1948       5.01000000       2.00000000       0.00100000     135.01000000       1.00000000      86.40000000  0.03  2       1.00000000  0
  166  1 1947       5.04000000       2.00000000       0.00100000     135.01000000       1.00000000      86.40000000  0.03  2       1.00000000  0
  167  1 1944       5.06000000       2.00000000       0.00100000     135.01000000       1.00000000      86.40000000  0.03  2       1.00000000  0
  168  1 1943       5.01000000       2.00000000       0.00100000     135.01000000       1.00000000      86.40000000  0.03  2       1.00000000  0
  169  1 1940       5.04000000       2.00000000       0.00100000     135.00000000       1.00000000      86.40000000  0.03  2       1.00000000  0
  170  1 1939       5.09000000       2.00000000       0.00100000     134.97000000       1.00000000      86.40000000  0.03  2       1.00000000  0
  171  1 1936       5.10000000       2.00000000       0.00100000     134.97000000       1.00000000      86.40000000  0.03  2       1.00000000  0
  172  1 1935       5.21000000       2.00000000       0.00100000     134.97000000       1.00000000      86.40000000  0.03  2       1.00000000  0
  173  1 1932       2.82000000       2.00000000       0.00100000     134.97000000       1.00000000      86.40000000  0.03  2       1.00000000  0
  174  1 1930       2.67000000       2.00000000       0.00100000     134.90000000       1.00000000      86.40000000  0.03  2       1.00000000  0
  175  1 1929       5.48000000       2.00000000       0.00100000     134.90000000       1.00000000      86.40000000  0.03  2       1.00000000  0
  176  1 1926       3.41000000       2.00000000       0.00100000     134.90000000       1.00000000      86.40000000  0.03  2       1.00000000  0
  177  1 1804       2.35000000       2.00000000       0.00100000     134.89000000       1.00000000      86.40000000  0.03  2       1.00000000  0
  178  1 1803       5.59000000       2.00000000       0.00100000     134.77000000       1.00000000      86.40000000  0.03  2       1.00000000  0
  179  1 1800       3.34000000       2.00000000       0.00100000     134.77000000       1.00000000      86.40000000  0.03  2       1.00000000  0
  180  1 1798       2.48000000       2.00000000       0.00100000     134.77000000       1.00000000      86.40000000  0.03  2       1.00000000  0
  181  1 1797       5.24000000       2.00000000       0.00100000     134.77000000       1.00000000      86.40000000  0.03  2       1.00000000  0
  182  1 1794       3.12000000       2.00000000       0.00100000     134.77000000       1.00000000      86.40000000  0.03  2       1.00000000  0
  183  1 1653       5.00000000       2.00000000       0.00100000     134.77000000       1.00000000      86.40000000  0.03  2       1.00000000  0
  184  1 1651       4.48000000       2.00000000       0.00100000     134.77000000       1.00000000      86.40000000  0.03  2       1.00000000  0
  185  1 1654       2.91000000       2.00000000       0.00100000     134.73000000       1.00000000      86.40000000  0.03  2       1.00000000  0
  186  1 1521       5.25000000       2.00000000       0.00100000     134.72000000       1.00000000      86.40000000  0.03  2       1.00000000  0
  187  1 1519       5.11000000       2.00000000       0.00100000     134.72000000       1.00000000      86.40000000  0.03  2       1.00000000  0
  188  1 1394       5.22000000       2.00000000       0.00100000     134.72000000       1.00000000      86.40000000  0.03  2       1.00000000  0
  189  1 1392       5.21000000       2.00000000       0.00100000     134.71000000       1.00000000      86.40000000  0.03  2       1.00000000  0
  190  1 1266       5.37000000       2.00000000       0.00100000     134.38000000       1.00000000      86.40000000  0.03  2       1.00000000  0
  191  1 1264       4.94000000       2.00000000       0.00100000     134.27000000       1.00000000      86.40000000  0.03  2       1.00000000  0
  192  1 1261       0.71000000       2.00000000       0.00100000     134.27000000       1.00000000      86.40000000  0.03  2       1.00000000  0
  193  1 1153       5.74000000       2.00000000       0.00100000     134.17000000       1.00000000      86.40000000  0.03  2       1.00000000  0
  194  1 1151       3.64000000       2.00000000       0.00100000     134.17000000       1.00000000      86.40000000  0.03  2       1.00000000  0
  195  1 1150       2.09000000       2.00000000       0.00100000     134.17000000       1.00000000      86.40000000  0.03  2       1.00000000  0
  196  1 1063       5.67000000       2.00000000       0.00100000     134.17000000       1.00000000      86.40000000  0.03  2       1.00000000  0
  197  1 1061       5.15000000       2.00000000       0.00100000     134.17000000       1.00000000      86.40000000  0.03  2       1.00000000  0
  198  1 968       1.08000000       2.00000000       0.00100000     134.17000000       1.00000000      86.40000000  0.03  2       1.00000000  0
  199  1 965       1.72000000       2.00000000       0.00100000     134.08000000       1.00000000      86.40000000  0.03  2       1.00000000  0
  200  1 963       2.99000000       2.00000000       0.00100000     134.08000000       1.00000000      86.40000000  0.03  2       1.00000000  0
  201  1 960       3.16000000       2.00000000       0.00100000     134.08000000       1.00000000      86.40000000  0.03  2       1.00000000  0
  202  1 959       4.91000000       2.00000000       0.00100000     134.08000000       1.00000000      86.40000000  0.03  2       1.00000000  0
  203  1 878       2.05000000       2.00000000       0.00100000     134.08000000       1.00000000      86.40000000  0.03  2       1.00000000  0
  204  1 875       4.65000000       2.00000000       0.00100000     134.08000000       1.00000000      86.40000000  0.03  2       1.00000000  0
  205  1 873       3.52000000       2.00000000       0.00100000     134.08000000       1.00000000      86.40000000  0.03  2       1.00000000  0