# File generated by Flopy version 3.3.5 on 11/06/2021 at 11:50:12.
BEGIN options
  SAVE_FLOWS
  NEWTON  UNDER_RELAXATION
END options

BEGIN packages
  obs6  .\experimental.obs  gwf_obs
  sfr6  .\experimental.sfr  sfr
  ghb6  .\experimental.ghb  ghb
  sto6  .\experimental.sto  sto
  oc6  .\experimental.oc  oc
  npf6  .\experimental.npf  npf
  ic6  .\experimental.ic  ic
  disv6  .\experimental.disv  disv
  RCH6  experimental.rch  rch
END packages

