# File generated by Flopy version 3.3.5 on 11/06/2021 at 11:50:12.
BEGIN options
  PRINT_OPTION  summary
  COMPLEXITY  simple
END options

BEGIN nonlinear
  OUTER_DVCLOSE       0.01000000
  OUTER_MAXIMUM  750
END nonlinear

BEGIN linear
  INNER_MAXIMUM  50
  LINEAR_ACCELERATION  bicgstab
END linear

