# File generated by Flopy version 3.3.5 on 11/03/2021 at 15:11:00.
BEGIN options
  FIXED_CELL
  auxiliary  MULTIPLIER
  AUXMULTNAME  multiplier
  BOUNDNAMES
  PRINT_INPUT
  PRINT_FLOWS
  SAVE_FLOWS
  TS6  FILEIN  rch.ts
END options

BEGIN dimensions
  MAXBOUND  2955
END dimensions

BEGIN period  1
  1 7  rch_lu1       1.00000000  rch
  1 8  rch_lu1       1.00000000  rch
  1 24  rch_lu1       1.00000000  rch
  1 25  rch_lu1       1.00000000  rch
  1 26  rch_lu1       1.00000000  rch
  1 27  rch_lu1       1.00000000  rch
  1 28  rch_lu1       1.00000000  rch
  1 29  rch_lu1       1.00000000  rch
  1 30  rch_lu1       1.00000000  rch
  1 31  rch_lu1       1.00000000  rch
  1 32  rch_lu1       1.00000000  rch
  1 33  rch_lu1       1.00000000  rch
  1 34  rch_lu1       1.00000000  rch
  1 35  rch_lu1       1.00000000  rch
  1 36  rch_lu1       1.00000000  rch
  1 37  rch_lu1       1.00000000  rch
  1 38  rch_lu1       1.00000000  rch
  1 39  rch_lu1       1.00000000  rch
  1 40  rch_lu1       1.00000000  rch
  1 41  rch_lu1       1.00000000  rch
  1 42  rch_lu1       1.00000000  rch
  1 43  rch_lu1       1.00000000  rch
  1 44  rch_lu1       1.00000000  rch
  1 45  rch_lu1       1.00000000  rch
  1 46  rch_lu1       1.00000000  rch
  1 47  rch_lu1       1.00000000  rch
  1 48  rch_lu1       1.00000000  rch
  1 49  rch_lu1       1.00000000  rch
  1 50  rch_lu1       1.00000000  rch
  1 53  rch_lu1       1.00000000  rch
  1 54  rch_lu1       1.00000000  rch
  1 55  rch_lu1       1.00000000  rch
  1 56  rch_lu1       1.00000000  rch
  1 57  rch_lu1       1.00000000  rch
  1 58  rch_lu1       1.00000000  rch
  1 59  rch_lu1       1.00000000  rch
  1 60  rch_lu1       1.00000000  rch
  1 61  rch_lu1       1.00000000  rch
  1 62  rch_lu1       1.00000000  rch
  1 63  rch_lu1       1.00000000  rch
  1 64  rch_lu1       1.00000000  rch
  1 65  rch_lu1       1.00000000  rch
  1 66  rch_lu1       1.00000000  rch
  1 67  rch_lu1       1.00000000  rch
  1 68  rch_lu1       1.00000000  rch
  1 69  rch_lu1       1.00000000  rch
  1 70  rch_lu1       1.00000000  rch
  1 71  rch_lu1       1.00000000  rch
  1 72  rch_lu1       1.00000000  rch
  1 73  rch_lu1       1.00000000  rch
  1 74  rch_lu1       1.00000000  rch
  1 75  rch_lu1       1.00000000  rch
  1 76  rch_lu1       1.00000000  rch
  1 77  rch_lu1       1.00000000  rch
  1 78  rch_lu1       1.00000000  rch
  1 79  rch_lu1       1.00000000  rch
  1 80  rch_lu1       1.00000000  rch
  1 81  rch_lu1       1.00000000  rch
  1 82  rch_lu1       1.00000000  rch
  1 83  rch_lu1       1.00000000  rch
  1 86  rch_lu1       1.00000000  rch
  1 87  rch_lu1       1.00000000  rch
  1 88  rch_lu1       1.00000000  rch
  1 89  rch_lu1       1.00000000  rch
  1 90  rch_lu1       1.00000000  rch
  1 91  rch_lu1       1.00000000  rch
  1 92  rch_lu1       1.00000000  rch
  1 93  rch_lu1       1.00000000  rch
  1 94  rch_lu1       1.00000000  rch
  1 95  rch_lu1       1.00000000  rch
  1 96  rch_lu1       1.00000000  rch
  1 97  rch_lu1       1.00000000  rch
  1 98  rch_lu1       1.00000000  rch
  1 99  rch_lu1       1.00000000  rch
  1 100  rch_lu1       1.00000000  rch
  1 101  rch_lu1       1.00000000  rch
  1 102  rch_lu1       1.00000000  rch
  1 103  rch_lu1       1.00000000  rch
  1 104  rch_lu1       1.00000000  rch
  1 105  rch_lu1       1.00000000  rch
  1 106  rch_lu1       1.00000000  rch
  1 107  rch_lu1       1.00000000  rch
  1 108  rch_lu1       1.00000000  rch
  1 109  rch_lu1       1.00000000  rch
  1 110  rch_lu1       1.00000000  rch
  1 111  rch_lu1       1.00000000  rch
  1 112  rch_lu1       1.00000000  rch
  1 113  rch_lu1       1.00000000  rch
  1 114  rch_lu1       1.00000000  rch
  1 115  rch_lu1       1.00000000  rch
  1 118  rch_lu1       1.00000000  rch
  1 119  rch_lu1       1.00000000  rch
  1 120  rch_lu1       1.00000000  rch
  1 121  rch_lu1       1.00000000  rch
  1 122  rch_lu1       1.00000000  rch
  1 123  rch_lu1       1.00000000  rch
  1 124  rch_lu1       1.00000000  rch
  1 125  rch_lu1       1.00000000  rch
  1 126  rch_lu1       1.00000000  rch
  1 127  rch_lu1       1.00000000  rch
  1 128  rch_lu1       1.00000000  rch
  1 129  rch_lu1       1.00000000  rch
  1 130  rch_lu1       1.00000000  rch
  1 131  rch_lu1       1.00000000  rch
  1 132  rch_lu1       1.00000000  rch
  1 133  rch_lu1       1.00000000  rch
  1 134  rch_lu1       1.00000000  rch
  1 135  rch_lu1       1.00000000  rch
  1 136  rch_lu1       1.00000000  rch
  1 137  rch_lu1       1.00000000  rch
  1 138  rch_lu1       1.00000000  rch
  1 139  rch_lu1       1.00000000  rch
  1 140  rch_lu1       1.00000000  rch
  1 141  rch_lu1       1.00000000  rch
  1 142  rch_lu1       1.00000000  rch
  1 143  rch_lu1       1.00000000  rch
  1 144  rch_lu1       1.00000000  rch
  1 145  rch_lu1       1.00000000  rch
  1 146  rch_lu1       1.00000000  rch
  1 147  rch_lu1       1.00000000  rch
  1 148  rch_lu1       1.00000000  rch
  1 149  rch_lu1       1.00000000  rch
  1 152  rch_lu1       1.00000000  rch
  1 153  rch_lu1       1.00000000  rch
  1 154  rch_lu1       1.00000000  rch
  1 155  rch_lu1       1.00000000  rch
  1 156  rch_lu1       1.00000000  rch
  1 157  rch_lu1       1.00000000  rch
  1 158  rch_lu1       1.00000000  rch
  1 159  rch_lu1       1.00000000  rch
  1 160  rch_lu1       1.00000000  rch
  1 161  rch_lu1       1.00000000  rch
  1 162  rch_lu1       1.00000000  rch
  1 163  rch_lu1       1.00000000  rch
  1 164  rch_lu1       1.00000000  rch
  1 165  rch_lu1       1.00000000  rch
  1 166  rch_lu1       1.00000000  rch
  1 167  rch_lu1       1.00000000  rch
  1 168  rch_lu1       1.00000000  rch
  1 169  rch_lu1       1.00000000  rch
  1 170  rch_lu1       1.00000000  rch
  1 171  rch_lu1       1.00000000  rch
  1 172  rch_lu1       1.00000000  rch
  1 173  rch_lu1       1.00000000  rch
  1 174  rch_lu1       1.00000000  rch
  1 175  rch_lu1       1.00000000  rch
  1 176  rch_lu1       1.00000000  rch
  1 177  rch_lu1       1.00000000  rch
  1 178  rch_lu1       1.00000000  rch
  1 179  rch_lu1       1.00000000  rch
  1 180  rch_lu1       1.00000000  rch
  1 181  rch_lu1       1.00000000  rch
  1 182  rch_lu1       1.00000000  rch
  1 183  rch_lu1       1.00000000  rch
  1 184  rch_lu1       1.00000000  rch
  1 185  rch_lu1       1.00000000  rch
  1 188  rch_lu1       1.00000000  rch
  1 189  rch_lu1       1.00000000  rch
  1 190  rch_lu1       1.00000000  rch
  1 191  rch_lu1       1.00000000  rch
  1 192  rch_lu1       1.00000000  rch
  1 193  rch_lu1       1.00000000  rch
  1 194  rch_lu1       1.00000000  rch
  1 195  rch_lu1       1.00000000  rch
  1 196  rch_lu1       1.00000000  rch
  1 197  rch_lu1       1.00000000  rch
  1 198  rch_lu1       1.00000000  rch
  1 199  rch_lu1       1.00000000  rch
  1 200  rch_lu1       1.00000000  rch
  1 201  rch_lu1       1.00000000  rch
  1 202  rch_lu1       1.00000000  rch
  1 203  rch_lu1       1.00000000  rch
  1 204  rch_lu1       1.00000000  rch
  1 205  rch_lu1       1.00000000  rch
  1 206  rch_lu1       1.00000000  rch
  1 207  rch_lu1       1.00000000  rch
  1 208  rch_lu1       1.00000000  rch
  1 209  rch_lu1       1.00000000  rch
  1 210  rch_lu1       1.00000000  rch
  1 211  rch_lu1       1.00000000  rch
  1 212  rch_lu1       1.00000000  rch
  1 213  rch_lu1       1.00000000  rch
  1 214  rch_lu1       1.00000000  rch
  1 215  rch_lu1       1.00000000  rch
  1 216  rch_lu1       1.00000000  rch
  1 217  rch_lu1       1.00000000  rch
  1 218  rch_lu1       1.00000000  rch
  1 219  rch_lu1       1.00000000  rch
  1 220  rch_lu1       1.00000000  rch
  1 221  rch_lu1       1.00000000  rch
  1 222  rch_lu1       1.00000000  rch
  1 223  rch_lu1       1.00000000  rch
  1 225  rch_lu1       1.00000000  rch
  1 226  rch_lu1       1.00000000  rch
  1 227  rch_lu1       1.00000000  rch
  1 228  rch_lu1       1.00000000  rch
  1 229  rch_lu1       1.00000000  rch
  1 230  rch_lu1       1.00000000  rch
  1 231  rch_lu1       1.00000000  rch
  1 232  rch_lu1       1.00000000  rch
  1 233  rch_lu1       1.00000000  rch
  1 234  rch_lu1       1.00000000  rch
  1 235  rch_lu1       1.00000000  rch
  1 236  rch_lu1       1.00000000  rch
  1 237  rch_lu1       1.00000000  rch
  1 238  rch_lu1       1.00000000  rch
  1 239  rch_lu1       1.00000000  rch
  1 240  rch_lu1       1.00000000  rch
  1 241  rch_lu1       1.00000000  rch
  1 242  rch_lu1       1.00000000  rch
  1 243  rch_lu1       1.00000000  rch
  1 244  rch_lu1       1.00000000  rch
  1 245  rch_lu1       1.00000000  rch
  1 246  rch_lu1       1.00000000  rch
  1 247  rch_lu1       1.00000000  rch
  1 248  rch_lu1       1.00000000  rch
  1 249  rch_lu1       1.00000000  rch
  1 250  rch_lu1       1.00000000  rch
  1 251  rch_lu1       1.00000000  rch
  1 252  rch_lu1       1.00000000  rch
  1 253  rch_lu1       1.00000000  rch
  1 254  rch_lu1       1.00000000  rch
  1 255  rch_lu1       1.00000000  rch
  1 256  rch_lu1       1.00000000  rch
  1 257  rch_lu1       1.00000000  rch
  1 258  rch_lu1       1.00000000  rch
  1 259  rch_lu1       1.00000000  rch
  1 260  rch_lu1       1.00000000  rch
  1 261  rch_lu1       1.00000000  rch
  1 262  rch_lu1       1.00000000  rch
  1 263  rch_lu1       1.00000000  rch
  1 266  rch_lu1       1.00000000  rch
  1 267  rch_lu1       1.00000000  rch
  1 268  rch_lu1       1.00000000  rch
  1 269  rch_lu1       1.00000000  rch
  1 270  rch_lu1       1.00000000  rch
  1 271  rch_lu1       1.00000000  rch
  1 272  rch_lu1       1.00000000  rch
  1 273  rch_lu1       1.00000000  rch
  1 274  rch_lu1       1.00000000  rch
  1 275  rch_lu1       1.00000000  rch
  1 276  rch_lu1       1.00000000  rch
  1 277  rch_lu1       1.00000000  rch
  1 278  rch_lu1       1.00000000  rch
  1 279  rch_lu1       1.00000000  rch
  1 280  rch_lu1       1.00000000  rch
  1 281  rch_lu1       1.00000000  rch
  1 282  rch_lu1       1.00000000  rch
  1 283  rch_lu1       1.00000000  rch
  1 284  rch_lu1       1.00000000  rch
  1 285  rch_lu1       1.00000000  rch
  1 286  rch_lu1       1.00000000  rch
  1 287  rch_lu1       1.00000000  rch
  1 288  rch_lu1       1.00000000  rch
  1 289  rch_lu1       1.00000000  rch
  1 290  rch_lu1       1.00000000  rch
  1 291  rch_lu1       1.00000000  rch
  1 292  rch_lu1       1.00000000  rch
  1 293  rch_lu1       1.00000000  rch
  1 294  rch_lu1       1.00000000  rch
  1 295  rch_lu1       1.00000000  rch
  1 296  rch_lu1       1.00000000  rch
  1 297  rch_lu1       1.00000000  rch
  1 298  rch_lu1       1.00000000  rch
  1 299  rch_lu1       1.00000000  rch
  1 300  rch_lu1       1.00000000  rch
  1 301  rch_lu1       1.00000000  rch
  1 302  rch_lu1       1.00000000  rch
  1 303  rch_lu1       1.00000000  rch
  1 304  rch_lu1       1.00000000  rch
  1 305  rch_lu1       1.00000000  rch
  1 306  rch_lu1       1.00000000  rch
  1 307  rch_lu1       1.00000000  rch
  1 308  rch_lu1       1.00000000  rch
  1 309  rch_lu1       1.00000000  rch
  1 310  rch_lu1       1.00000000  rch
  1 311  rch_lu1       1.00000000  rch
  1 349  rch_lu1       1.00000000  rch
  1 350  rch_lu1       1.00000000  rch
  1 351  rch_lu1       1.00000000  rch
  1 352  rch_lu1       1.00000000  rch
  1 353  rch_lu1       1.00000000  rch
  1 354  rch_lu1       1.00000000  rch
  1 355  rch_lu1       1.00000000  rch
  1 356  rch_lu1       1.00000000  rch
  1 357  rch_lu1       1.00000000  rch
  1 358  rch_lu1       1.00000000  rch
  1 359  rch_lu1       1.00000000  rch
  1 360  rch_lu1       1.00000000  rch
  1 361  rch_lu1       1.00000000  rch
  1 362  rch_lu1       1.00000000  rch
  1 363  rch_lu1       1.00000000  rch
  1 364  rch_lu1       1.00000000  rch
  1 365  rch_lu1       1.00000000  rch
  1 366  rch_lu1       1.00000000  rch
  1 367  rch_lu1       1.00000000  rch
  1 368  rch_lu1       1.00000000  rch
  1 369  rch_lu1       1.00000000  rch
  1 370  rch_lu1       1.00000000  rch
  1 371  rch_lu1       1.00000000  rch
  1 372  rch_lu1       1.00000000  rch
  1 373  rch_lu1       1.00000000  rch
  1 374  rch_lu1       1.00000000  rch
  1 375  rch_lu1       1.00000000  rch
  1 376  rch_lu1       1.00000000  rch
  1 377  rch_lu1       1.00000000  rch
  1 378  rch_lu1       1.00000000  rch
  1 379  rch_lu1       1.00000000  rch
  1 380  rch_lu1       1.00000000  rch
  1 381  rch_lu1       1.00000000  rch
  1 382  rch_lu1       1.00000000  rch
  1 383  rch_lu1       1.00000000  rch
  1 384  rch_lu1       1.00000000  rch
  1 385  rch_lu1       1.00000000  rch
  1 386  rch_lu1       1.00000000  rch
  1 387  rch_lu1       1.00000000  rch
  1 388  rch_lu1       1.00000000  rch
  1 389  rch_lu1       1.00000000  rch
  1 390  rch_lu1       1.00000000  rch
  1 391  rch_lu1       1.00000000  rch
  1 392  rch_lu1       1.00000000  rch
  1 393  rch_lu1       1.00000000  rch
  1 394  rch_lu1       1.00000000  rch
  1 395  rch_lu1       1.00000000  rch
  1 396  rch_lu1       1.00000000  rch
  1 397  rch_lu1       1.00000000  rch
  1 398  rch_lu1       1.00000000  rch
  1 399  rch_lu1       1.00000000  rch
  1 400  rch_lu1       1.00000000  rch
  1 401  rch_lu1       1.00000000  rch
  1 402  rch_lu1       1.00000000  rch
  1 403  rch_lu1       1.00000000  rch
  1 404  rch_lu1       1.00000000  rch
  1 405  rch_lu1       1.00000000  rch
  1 406  rch_lu1       1.00000000  rch
  1 407  rch_lu1       1.00000000  rch
  1 408  rch_lu1       1.00000000  rch
  1 409  rch_lu1       1.00000000  rch
  1 410  rch_lu1       1.00000000  rch
  1 411  rch_lu1       1.00000000  rch
  1 412  rch_lu1       1.00000000  rch
  1 413  rch_lu1       1.00000000  rch
  1 414  rch_lu1       1.00000000  rch
  1 415  rch_lu1       1.00000000  rch
  1 416  rch_lu1       1.00000000  rch
  1 417  rch_lu1       1.00000000  rch
  1 418  rch_lu1       1.00000000  rch
  1 419  rch_lu1       1.00000000  rch
  1 420  rch_lu1       1.00000000  rch
  1 421  rch_lu1       1.00000000  rch
  1 422  rch_lu1       1.00000000  rch
  1 423  rch_lu1       1.00000000  rch
  1 424  rch_lu1       1.00000000  rch
  1 425  rch_lu1       1.00000000  rch
  1 426  rch_lu1       1.00000000  rch
  1 427  rch_lu1       1.00000000  rch
  1 430  rch_lu1       1.00000000  rch
  1 431  rch_lu1       1.00000000  rch
  1 432  rch_lu1       1.00000000  rch
  1 433  rch_lu1       1.00000000  rch
  1 434  rch_lu1       1.00000000  rch
  1 435  rch_lu1       1.00000000  rch
  1 436  rch_lu1       1.00000000  rch
  1 437  rch_lu1       1.00000000  rch
  1 438  rch_lu1       1.00000000  rch
  1 439  rch_lu1       1.00000000  rch
  1 440  rch_lu1       1.00000000  rch
  1 441  rch_lu1       1.00000000  rch
  1 442  rch_lu1       1.00000000  rch
  1 443  rch_lu1       1.00000000  rch
  1 444  rch_lu1       1.00000000  rch
  1 445  rch_lu1       1.00000000  rch
  1 446  rch_lu1       1.00000000  rch
  1 447  rch_lu1       1.00000000  rch
  1 448  rch_lu1       1.00000000  rch
  1 449  rch_lu1       1.00000000  rch
  1 450  rch_lu1       1.00000000  rch
  1 451  rch_lu1       1.00000000  rch
  1 452  rch_lu1       1.00000000  rch
  1 453  rch_lu1       1.00000000  rch
  1 454  rch_lu1       1.00000000  rch
  1 455  rch_lu1       1.00000000  rch
  1 456  rch_lu1       1.00000000  rch
  1 457  rch_lu1       1.00000000  rch
  1 458  rch_lu1       1.00000000  rch
  1 459  rch_lu1       1.00000000  rch
  1 460  rch_lu1       1.00000000  rch
  1 461  rch_lu1       1.00000000  rch
  1 462  rch_lu1       1.00000000  rch
  1 463  rch_lu1       1.00000000  rch
  1 464  rch_lu1       1.00000000  rch
  1 465  rch_lu1       1.00000000  rch
  1 466  rch_lu1       1.00000000  rch
  1 467  rch_lu1       1.00000000  rch
  1 468  rch_lu1       1.00000000  rch
  1 469  rch_lu1       1.00000000  rch
  1 470  rch_lu1       1.00000000  rch
  1 471  rch_lu1       1.00000000  rch
  1 472  rch_lu1       1.00000000  rch
  1 473  rch_lu1       1.00000000  rch
  1 474  rch_lu1       1.00000000  rch
  1 475  rch_lu1       1.00000000  rch
  1 476  rch_lu1       1.00000000  rch
  1 477  rch_lu1       1.00000000  rch
  1 478  rch_lu1       1.00000000  rch
  1 479  rch_lu1       1.00000000  rch
  1 480  rch_lu1       1.00000000  rch
  1 481  rch_lu1       1.00000000  rch
  1 482  rch_lu1       1.00000000  rch
  1 483  rch_lu1       1.00000000  rch
  1 484  rch_lu1       1.00000000  rch
  1 485  rch_lu1       1.00000000  rch
  1 486  rch_lu1       1.00000000  rch
  1 487  rch_lu1       1.00000000  rch
  1 488  rch_lu1       1.00000000  rch
  1 489  rch_lu1       1.00000000  rch
  1 490  rch_lu1       1.00000000  rch
  1 491  rch_lu1       1.00000000  rch
  1 492  rch_lu1       1.00000000  rch
  1 493  rch_lu1       1.00000000  rch
  1 494  rch_lu1       1.00000000  rch
  1 495  rch_lu1       1.00000000  rch
  1 496  rch_lu1       1.00000000  rch
  1 497  rch_lu1       1.00000000  rch
  1 498  rch_lu1       1.00000000  rch
  1 499  rch_lu1       1.00000000  rch
  1 500  rch_lu1       1.00000000  rch
  1 501  rch_lu1       1.00000000  rch
  1 502  rch_lu1       1.00000000  rch
  1 503  rch_lu1       1.00000000  rch
  1 506  rch_lu1       1.00000000  rch
  1 507  rch_lu1       1.00000000  rch
  1 508  rch_lu1       1.00000000  rch
  1 509  rch_lu1       1.00000000  rch
  1 510  rch_lu1       1.00000000  rch
  1 511  rch_lu1       1.00000000  rch
  1 512  rch_lu1       1.00000000  rch
  1 513  rch_lu1       1.00000000  rch
  1 514  rch_lu1       1.00000000  rch
  1 515  rch_lu1       1.00000000  rch
  1 516  rch_lu1       1.00000000  rch
  1 517  rch_lu1       1.00000000  rch
  1 518  rch_lu1       1.00000000  rch
  1 519  rch_lu1       1.00000000  rch
  1 520  rch_lu1       1.00000000  rch
  1 521  rch_lu1       1.00000000  rch
  1 522  rch_lu1       1.00000000  rch
  1 523  rch_lu1       1.00000000  rch
  1 524  rch_lu1       1.00000000  rch
  1 525  rch_lu1       1.00000000  rch
  1 526  rch_lu1       1.00000000  rch
  1 527  rch_lu1       1.00000000  rch
  1 528  rch_lu1       1.00000000  rch
  1 529  rch_lu1       1.00000000  rch
  1 530  rch_lu1       1.00000000  rch
  1 531  rch_lu1       1.00000000  rch
  1 532  rch_lu1       1.00000000  rch
  1 533  rch_lu1       1.00000000  rch
  1 534  rch_lu1       1.00000000  rch
  1 535  rch_lu1       1.00000000  rch
  1 536  rch_lu1       1.00000000  rch
  1 537  rch_lu1       1.00000000  rch
  1 538  rch_lu1       1.00000000  rch
  1 539  rch_lu1       1.00000000  rch
  1 540  rch_lu1       1.00000000  rch
  1 541  rch_lu1       1.00000000  rch
  1 542  rch_lu1       1.00000000  rch
  1 543  rch_lu1       1.00000000  rch
  1 544  rch_lu1       1.00000000  rch
  1 545  rch_lu1       1.00000000  rch
  1 546  rch_lu1       1.00000000  rch
  1 547  rch_lu1       1.00000000  rch
  1 548  rch_lu1       1.00000000  rch
  1 549  rch_lu1       1.00000000  rch
  1 550  rch_lu1       1.00000000  rch
  1 551  rch_lu1       1.00000000  rch
  1 552  rch_lu1       1.00000000  rch
  1 553  rch_lu1       1.00000000  rch
  1 554  rch_lu1       1.00000000  rch
  1 555  rch_lu1       1.00000000  rch
  1 556  rch_lu1       1.00000000  rch
  1 557  rch_lu1       1.00000000  rch
  1 558  rch_lu1       1.00000000  rch
  1 559  rch_lu1       1.00000000  rch
  1 560  rch_lu1       1.00000000  rch
  1 561  rch_lu1       1.00000000  rch
  1 562  rch_lu1       1.00000000  rch
  1 563  rch_lu1       1.00000000  rch
  1 564  rch_lu1       1.00000000  rch
  1 565  rch_lu1       1.00000000  rch
  1 566  rch_lu1       1.00000000  rch
  1 567  rch_lu1       1.00000000  rch
  1 568  rch_lu1       1.00000000  rch
  1 569  rch_lu1       1.00000000  rch
  1 570  rch_lu1       1.00000000  rch
  1 571  rch_lu1       1.00000000  rch
  1 572  rch_lu1       1.00000000  rch
  1 573  rch_lu1       1.00000000  rch
  1 574  rch_lu1       1.00000000  rch
  1 575  rch_lu1       1.00000000  rch
  1 576  rch_lu1       1.00000000  rch
  1 577  rch_lu1       1.00000000  rch
  1 578  rch_lu1       1.00000000  rch
  1 579  rch_lu1       1.00000000  rch
  1 580  rch_lu1       1.00000000  rch
  1 581  rch_lu1       1.00000000  rch
  1 582  rch_lu1       1.00000000  rch
  1 583  rch_lu1       1.00000000  rch
  1 586  rch_lu1       1.00000000  rch
  1 587  rch_lu1       1.00000000  rch
  1 588  rch_lu1       1.00000000  rch
  1 589  rch_lu1       1.00000000  rch
  1 590  rch_lu1       1.00000000  rch
  1 591  rch_lu1       1.00000000  rch
  1 592  rch_lu1       1.00000000  rch
  1 593  rch_lu1       1.00000000  rch
  1 594  rch_lu1       1.00000000  rch
  1 595  rch_lu1       1.00000000  rch
  1 596  rch_lu1       1.00000000  rch
  1 597  rch_lu1       1.00000000  rch
  1 598  rch_lu1       1.00000000  rch
  1 599  rch_lu1       1.00000000  rch
  1 600  rch_lu1       1.00000000  rch
  1 601  rch_lu1       1.00000000  rch
  1 602  rch_lu1       1.00000000  rch
  1 603  rch_lu1       1.00000000  rch
  1 604  rch_lu1       1.00000000  rch
  1 605  rch_lu1       1.00000000  rch
  1 606  rch_lu1       1.00000000  rch
  1 607  rch_lu1       1.00000000  rch
  1 608  rch_lu1       1.00000000  rch
  1 609  rch_lu1       1.00000000  rch
  1 610  rch_lu1       1.00000000  rch
  1 611  rch_lu1       1.00000000  rch
  1 612  rch_lu1       1.00000000  rch
  1 613  rch_lu1       1.00000000  rch
  1 614  rch_lu1       1.00000000  rch
  1 615  rch_lu1       1.00000000  rch
  1 616  rch_lu1       1.00000000  rch
  1 617  rch_lu1       1.00000000  rch
  1 618  rch_lu1       1.00000000  rch
  1 619  rch_lu1       1.00000000  rch
  1 620  rch_lu1       1.00000000  rch
  1 621  rch_lu1       1.00000000  rch
  1 622  rch_lu1       1.00000000  rch
  1 623  rch_lu1       1.00000000  rch
  1 624  rch_lu1       1.00000000  rch
  1 625  rch_lu1       1.00000000  rch
  1 626  rch_lu1       1.00000000  rch
  1 627  rch_lu1       1.00000000  rch
  1 628  rch_lu1       1.00000000  rch
  1 629  rch_lu1       1.00000000  rch
  1 630  rch_lu1       1.00000000  rch
  1 631  rch_lu1       1.00000000  rch
  1 632  rch_lu1       1.00000000  rch
  1 633  rch_lu1       1.00000000  rch
  1 634  rch_lu1       1.00000000  rch
  1 635  rch_lu1       1.00000000  rch
  1 636  rch_lu1       1.00000000  rch
  1 637  rch_lu1       1.00000000  rch
  1 638  rch_lu1       1.00000000  rch
  1 639  rch_lu1       1.00000000  rch
  1 640  rch_lu1       1.00000000  rch
  1 641  rch_lu1       1.00000000  rch
  1 642  rch_lu1       1.00000000  rch
  1 643  rch_lu1       1.00000000  rch
  1 644  rch_lu1       1.00000000  rch
  1 645  rch_lu1       1.00000000  rch
  1 646  rch_lu1       1.00000000  rch
  1 647  rch_lu1       1.00000000  rch
  1 648  rch_lu1       1.00000000  rch
  1 649  rch_lu1       1.00000000  rch
  1 650  rch_lu1       1.00000000  rch
  1 651  rch_lu1       1.00000000  rch
  1 652  rch_lu1       1.00000000  rch
  1 653  rch_lu1       1.00000000  rch
  1 654  rch_lu1       1.00000000  rch
  1 655  rch_lu1       1.00000000  rch
  1 656  rch_lu1       1.00000000  rch
  1 657  rch_lu1       1.00000000  rch
  1 658  rch_lu1       1.00000000  rch
  1 659  rch_lu1       1.00000000  rch
  1 660  rch_lu1       1.00000000  rch
  1 661  rch_lu1       1.00000000  rch
  1 662  rch_lu1       1.00000000  rch
  1 663  rch_lu1       1.00000000  rch
  1 664  rch_lu1       1.00000000  rch
  1 667  rch_lu1       1.00000000  rch
  1 668  rch_lu1       1.00000000  rch
  1 669  rch_lu1       1.00000000  rch
  1 670  rch_lu1       1.00000000  rch
  1 671  rch_lu1       1.00000000  rch
  1 672  rch_lu1       1.00000000  rch
  1 673  rch_lu1       1.00000000  rch
  1 674  rch_lu1       1.00000000  rch
  1 675  rch_lu1       1.00000000  rch
  1 676  rch_lu1       1.00000000  rch
  1 677  rch_lu1       1.00000000  rch
  1 678  rch_lu1       1.00000000  rch
  1 679  rch_lu1       1.00000000  rch
  1 680  rch_lu1       1.00000000  rch
  1 681  rch_lu1       1.00000000  rch
  1 682  rch_lu1       1.00000000  rch
  1 683  rch_lu1       1.00000000  rch
  1 684  rch_lu1       1.00000000  rch
  1 685  rch_lu1       1.00000000  rch
  1 686  rch_lu1       1.00000000  rch
  1 687  rch_lu1       1.00000000  rch
  1 688  rch_lu1       1.00000000  rch
  1 689  rch_lu1       1.00000000  rch
  1 690  rch_lu1       1.00000000  rch
  1 691  rch_lu1       1.00000000  rch
  1 692  rch_lu1       1.00000000  rch
  1 693  rch_lu1       1.00000000  rch
  1 694  rch_lu1       1.00000000  rch
  1 695  rch_lu1       1.00000000  rch
  1 696  rch_lu1       1.00000000  rch
  1 697  rch_lu1       1.00000000  rch
  1 698  rch_lu1       1.00000000  rch
  1 699  rch_lu1       1.00000000  rch
  1 700  rch_lu1       1.00000000  rch
  1 701  rch_lu1       1.00000000  rch
  1 702  rch_lu1       1.00000000  rch
  1 703  rch_lu1       1.00000000  rch
  1 704  rch_lu1       1.00000000  rch
  1 705  rch_lu1       1.00000000  rch
  1 706  rch_lu1       1.00000000  rch
  1 707  rch_lu1       1.00000000  rch
  1 708  rch_lu1       1.00000000  rch
  1 709  rch_lu1       1.00000000  rch
  1 710  rch_lu1       1.00000000  rch
  1 711  rch_lu1       1.00000000  rch
  1 712  rch_lu1       1.00000000  rch
  1 713  rch_lu1       1.00000000  rch
  1 714  rch_lu1       1.00000000  rch
  1 715  rch_lu1       1.00000000  rch
  1 716  rch_lu1       1.00000000  rch
  1 717  rch_lu1       1.00000000  rch
  1 718  rch_lu1       1.00000000  rch
  1 719  rch_lu1       1.00000000  rch
  1 720  rch_lu1       1.00000000  rch
  1 721  rch_lu1       1.00000000  rch
  1 722  rch_lu1       1.00000000  rch
  1 723  rch_lu1       1.00000000  rch
  1 724  rch_lu1       1.00000000  rch
  1 725  rch_lu1       1.00000000  rch
  1 726  rch_lu1       1.00000000  rch
  1 727  rch_lu1       1.00000000  rch
  1 728  rch_lu1       1.00000000  rch
  1 729  rch_lu1       1.00000000  rch
  1 730  rch_lu1       1.00000000  rch
  1 731  rch_lu1       1.00000000  rch
  1 732  rch_lu1       1.00000000  rch
  1 733  rch_lu1       1.00000000  rch
  1 734  rch_lu1       1.00000000  rch
  1 735  rch_lu1       1.00000000  rch
  1 736  rch_lu1       1.00000000  rch
  1 737  rch_lu1       1.00000000  rch
  1 738  rch_lu1       1.00000000  rch
  1 739  rch_lu1       1.00000000  rch
  1 740  rch_lu1       1.00000000  rch
  1 741  rch_lu1       1.00000000  rch
  1 742  rch_lu1       1.00000000  rch
  1 743  rch_lu1       1.00000000  rch
  1 744  rch_lu1       1.00000000  rch
  1 745  rch_lu1       1.00000000  rch
  1 746  rch_lu1       1.00000000  rch
  1 749  rch_lu1       1.00000000  rch
  1 750  rch_lu1       1.00000000  rch
  1 751  rch_lu1       1.00000000  rch
  1 752  rch_lu1       1.00000000  rch
  1 753  rch_lu1       1.00000000  rch
  1 754  rch_lu1       1.00000000  rch
  1 755  rch_lu1       1.00000000  rch
  1 756  rch_lu1       1.00000000  rch
  1 757  rch_lu1       1.00000000  rch
  1 758  rch_lu1       1.00000000  rch
  1 759  rch_lu1       1.00000000  rch
  1 760  rch_lu1       1.00000000  rch
  1 761  rch_lu1       1.00000000  rch
  1 762  rch_lu1       1.00000000  rch
  1 763  rch_lu1       1.00000000  rch
  1 764  rch_lu1       1.00000000  rch
  1 765  rch_lu1       1.00000000  rch
  1 766  rch_lu1       1.00000000  rch
  1 767  rch_lu1       1.00000000  rch
  1 768  rch_lu1       1.00000000  rch
  1 769  rch_lu1       1.00000000  rch
  1 770  rch_lu1       1.00000000  rch
  1 771  rch_lu1       1.00000000  rch
  1 772  rch_lu1       1.00000000  rch
  1 773  rch_lu1       1.00000000  rch
  1 774  rch_lu1       1.00000000  rch
  1 775  rch_lu1       1.00000000  rch
  1 776  rch_lu1       1.00000000  rch
  1 777  rch_lu1       1.00000000  rch
  1 778  rch_lu1       1.00000000  rch
  1 779  rch_lu1       1.00000000  rch
  1 780  rch_lu1       1.00000000  rch
  1 781  rch_lu1       1.00000000  rch
  1 782  rch_lu1       1.00000000  rch
  1 783  rch_lu1       1.00000000  rch
  1 784  rch_lu1       1.00000000  rch
  1 785  rch_lu1       1.00000000  rch
  1 786  rch_lu1       1.00000000  rch
  1 787  rch_lu1       1.00000000  rch
  1 788  rch_lu1       1.00000000  rch
  1 789  rch_lu1       1.00000000  rch
  1 790  rch_lu1       1.00000000  rch
  1 791  rch_lu1       1.00000000  rch
  1 792  rch_lu1       1.00000000  rch
  1 793  rch_lu1       1.00000000  rch
  1 794  rch_lu1       1.00000000  rch
  1 795  rch_lu1       1.00000000  rch
  1 796  rch_lu1       1.00000000  rch
  1 797  rch_lu1       1.00000000  rch
  1 798  rch_lu1       1.00000000  rch
  1 799  rch_lu1       1.00000000  rch
  1 800  rch_lu1       1.00000000  rch
  1 801  rch_lu1       1.00000000  rch
  1 802  rch_lu1       1.00000000  rch
  1 803  rch_lu1       1.00000000  rch
  1 804  rch_lu1       1.00000000  rch
  1 805  rch_lu1       1.00000000  rch
  1 806  rch_lu1       1.00000000  rch
  1 807  rch_lu1       1.00000000  rch
  1 808  rch_lu1       1.00000000  rch
  1 809  rch_lu1       1.00000000  rch
  1 810  rch_lu1       1.00000000  rch
  1 811  rch_lu1       1.00000000  rch
  1 812  rch_lu1       1.00000000  rch
  1 813  rch_lu1       1.00000000  rch
  1 814  rch_lu1       1.00000000  rch
  1 815  rch_lu1       1.00000000  rch
  1 816  rch_lu1       1.00000000  rch
  1 817  rch_lu1       1.00000000  rch
  1 818  rch_lu1       1.00000000  rch
  1 819  rch_lu1       1.00000000  rch
  1 820  rch_lu1       1.00000000  rch
  1 821  rch_lu1       1.00000000  rch
  1 822  rch_lu1       1.00000000  rch
  1 823  rch_lu1       1.00000000  rch
  1 824  rch_lu1       1.00000000  rch
  1 825  rch_lu1       1.00000000  rch
  1 826  rch_lu1       1.00000000  rch
  1 827  rch_lu1       1.00000000  rch
  1 828  rch_lu1       1.00000000  rch
  1 829  rch_lu1       1.00000000  rch
  1 832  rch_lu1       1.00000000  rch
  1 833  rch_lu1       1.00000000  rch
  1 834  rch_lu1       1.00000000  rch
  1 835  rch_lu1       1.00000000  rch
  1 836  rch_lu1       1.00000000  rch
  1 837  rch_lu1       1.00000000  rch
  1 838  rch_lu1       1.00000000  rch
  1 839  rch_lu1       1.00000000  rch
  1 840  rch_lu1       1.00000000  rch
  1 841  rch_lu1       1.00000000  rch
  1 842  rch_lu1       1.00000000  rch
  1 843  rch_lu1       1.00000000  rch
  1 844  rch_lu1       1.00000000  rch
  1 845  rch_lu1       1.00000000  rch
  1 846  rch_lu1       1.00000000  rch