# File generated by Flopy version 3.3.5 on 11/03/2021 at 15:11:00.
BEGIN options
  DIGITS  10
  PRINT_INPUT
END options

BEGIN continuous  FILEOUT  sfr.obs.csv
  ni15-o44-stg  stage  107
  ni15-o46-stg  stage  141
  ni15-o47-stg  stage  156
  ni15-o48-stg  stage  195
  gage-1  inflow  234
END continuous  FILEOUT  sfr.obs.csv

