# File generated by Flopy version 3.3.5 on 11/03/2021 at 15:11:00.
BEGIN options
  SAVE_FLOWS
END options

BEGIN griddata
  icelltype  LAYERED
    CONSTANT  1
    CONSTANT  0
    CONSTANT  0
  k  LAYERED
    CONSTANT      86.40000000
    CONSTANT      86.40000000
    CONSTANT      43.20000000
  k33  LAYERED
    CONSTANT       8.64000000
    CONSTANT       8.64000000
    CONSTANT       0.10000000
END griddata

