# File generated by Flopy version 3.3.5 on 11/06/2021 at 11:50:12.
BEGIN griddata
  strt
    INTERNAL  FACTOR  1.0
       133.79004244     133.77690061     133.74236167     133.66928171     133.61844285     133.61094161     133.49508721     133.47403917     133.59379716     133.68254785     133.75938208     133.82801334     133.89109855     133.95141075     134.00873653     134.06396068     134.11854595     134.17570593     134.23209080     134.28241070
       134.33072773     134.37637259     134.41252496     133.70051906     133.72247763     133.71475996     133.68233058     133.61757989     133.51207626     133.43317914     133.53327326     133.48404584     133.42287688     133.48149981     133.42752459     133.41160339     133.55858520     133.65382470     133.73284373     133.80500982
       133.87378138     133.94069654     134.00593712     134.06908070     134.13243371     134.19662672     134.25558568     134.31319193     134.37265712     134.44108556     134.54812704     133.66800773     133.68152406     133.68880062     133.68108983     133.65673845     133.61367186     133.55113857     133.48771088     133.46214360
       133.51910707     133.50291589     133.46460558     133.51231666     133.48716282     133.47083215     133.56766268     133.60309649     133.52104822     133.56939021     133.65193423     133.73146352     133.80830786     133.88388570     133.95729679     134.02779363     134.09582133     134.16451300     134.23164176     134.29752611
       134.36506729     134.43917555     134.52670330     134.62025955     133.65467727     133.66300867     133.67017732     133.67250149     133.66617491     133.64946054     133.62245470     133.58758015     133.55481486     133.52143536     133.47353924     133.51985969     133.49780073     133.47505275     133.57109790     133.60663750
       133.52473898     133.57405473     133.65934695     133.74516151     133.83014304     133.91288551     133.99118819     134.06404323     134.13792636     134.20785763     134.27931800     134.35301400     134.42935430     134.51159269     134.59916917     134.69254894     133.64528676     133.65243252     133.65921104     133.66430584
       133.66579246     133.66184147     133.65147140     133.63508612     133.61445362     133.59248813     133.56902925     133.53151836     133.47678531     133.52521760     133.50526201     133.47919791     133.57984823     133.61766578     133.53270765     133.58474357     133.67681223     133.77559089     133.87167372     133.95840562
       134.03529284     134.11328058     134.18563358     134.25911258     134.33591921     134.41612894     134.49961587     134.58801308     134.67797790     134.76911002     133.63495918     133.64266613     133.65029185     133.65707034     133.66223671     133.66469346     133.66356488     133.65841297     133.64946993     133.63758347
       133.62361161     133.60736970     133.58458079     133.54560347     133.48374334     133.53333968     133.51856967     133.48963424     133.58808114     133.63535503     133.52471147     133.59651171     133.71593614     133.83577922     133.93184276     134.01002889     134.08881591     134.16227679     134.23702594     134.31669996
       134.39917885     134.48839045     134.57971056     134.67158558     134.76564539     134.86175904     133.62112712     133.63059066     133.63995792     133.64869518     133.65644664     133.66274885     133.66699146     133.66878491     133.66790088     133.66454348     133.65905240     133.65181761     133.64255532     133.62950324
       133.60809782     133.57283242     133.50431547     133.53746655     133.55387506     133.52243683     133.62802000     133.70080393     133.57518692     133.68486656     133.81545032     133.91660435     133.98979878     134.06391870     134.13588686     134.21092267     134.29284368     134.37977184     134.47273050     134.57200977
       134.66986075     134.77025755     134.87551987     134.98375671     133.59966371     133.61305345     133.62587643     133.63755793     133.64797467     133.65723361     133.66518571     133.67158708     133.67623259     133.67915926     133.68041717     133.68026836     133.67892187     133.67655885     133.67280093     133.66665052
       133.65722689     133.64116105     133.57900482     133.68710139     133.68527154     133.74594272     133.80719547     133.85722807     133.85975393     133.89424890     133.92162046     133.97381889     134.03605057     134.10316424     134.17763156     134.26259141     134.35563700     134.45578203     134.56110132     134.66682362
       134.77709396     134.89642145     135.02473696     135.16599736     133.55258117     133.58466030     133.60537406     133.62158915     133.63572005     133.64821780     133.65931445     133.66914086     133.67780421     133.68519036     133.69146225     133.69671841     133.70114214     133.70526130     133.70937551     133.71392367
       133.71995134     133.72967999     133.74995494     133.79593995     133.85637085     133.89295897     133.86027452     133.89089238     133.92160460     133.93322679     133.91787856     133.93301394     133.94838849     133.96517154     133.94784014     133.95351396     133.99398732     134.01667025     133.96928649     133.99916136
       134.05790078     134.12995450     134.22201493     134.32545362     134.43500712     134.54624762     134.65911576     134.77990213     134.91260797     135.06459551     135.26735009     135.59970589     135.82215588     135.99111733     136.12344448     136.23620971     136.33758400     136.43045630     136.51703879     136.59716257
       136.67463236     136.75135269     136.82847714     136.90745166     136.98435605     137.06128725     137.13900473     137.22026657     137.29546797     137.36779482     137.43649359     137.50404780     137.56782793     137.63577066     137.78215471     137.95001358     138.05405678     138.12684486     138.21350145     138.35923986
       138.50702481     138.58712652     138.76560782     138.95286079     139.11594409     139.27243003     139.52909631     133.55032675     133.57864667     133.60092740     133.61924379     133.63501956     133.64938717     133.66253944     133.67426291     133.68508255     133.69503999     133.70425389     133.71298263     133.72145204
       133.73014846     133.73966517     133.75061167     133.76401759     133.78139312     133.80736283     133.84619287     133.89160753     133.93198634     133.95894650     133.96539691     133.97028560     133.97438285     133.97800991     133.99600772     134.01829996     133.97410235     133.98103004     134.05093120     134.08394147
       133.99652791     134.03528694     134.16145547     134.28823044     134.40828368     134.52578443     134.64475774     134.77269225     134.91197316     135.06530513     135.24922454     135.47363628     135.66710224     135.83312186     135.97140850     136.09130703     136.19802580     136.29447492     136.38553991     136.47363884
       136.55839721     136.63786407     136.71987656     136.80172519     136.88476558     136.96797065     137.05352288     137.14266207     137.23129938     137.31969255     137.41164192     137.50551346     137.60451352     137.72668223     137.86251203     138.00054542     138.12693836     138.23947639     138.35218642     138.48956818
       138.63141635     138.83829568     138.97870317     139.17881477     139.39646070     139.64237883     140.08315461     140.79645278     133.54860266     133.57626263     133.59909237     133.61867097     133.63590261     133.65152819     133.66629459     133.68025927     133.69311206     133.70540579     133.71732158     133.72900026
       133.74083454     133.75321009     133.76665614     133.78172511     133.79950175     133.82109518     133.84771357     133.88045762     133.91630147     133.95009884     133.97788772     133.99696438     134.00766180     134.00608455     134.00027873     134.01471327     134.00069088     134.09887345     134.24504557     134.37722444
       134.49910198     134.62329261     134.75719329     134.89615247     135.04244901     135.20982770     135.38868219     135.55657089     135.71580074     135.85398657     135.97722263     136.08948662     136.19080208     136.28542721     136.37655834     136.46484767     136.54842524     136.63363742     136.72015141     136.80791097
       136.89653626     136.98912073     137.08822040     137.18941464     137.28698020     137.39864028     137.50427532     137.61465229     137.74778761     137.88364760     138.01319858     138.15428850     138.27933014     138.40247671     138.54206352     138.69384401     138.92155584     139.07809462     139.29536617     139.51898226
       139.78653974     140.17169343     140.64429629     141.10287374     133.54804456     133.57568103     133.59904008     133.61953936     133.63798522     133.65491125     133.67077379     133.68637039     133.70162777     133.71597692     133.73031460     133.74450532     133.75902722     133.77440145     133.79093079     133.80914581
       133.82965920     133.85286925     133.87958267     133.90968482     133.94113499     133.97222062     134.00037846     134.02451828     134.04294559     134.03947559     134.03476546     134.06001616     134.06556611     134.02539465     134.06003740     134.07606904     134.10431201     134.19678871     134.34006051     134.46573042
       134.59825868     134.73288710     134.86889059     135.00770127     135.16453661     135.32409580     135.47661640     135.62621168     135.76066001     135.88419842     135.99854355     136.10224671     136.19943291     136.29273443     136.38412493     136.47200172     136.56130076     136.65175174     136.74496424     136.83982969
       136.93952153     137.04691189     137.15899951     137.26144050     137.38920584     137.50138626     137.62438602     137.75710641     137.89634107     138.02660465     138.17534629     138.30697610     138.43201918     138.57253183     138.77795033     138.97711351     139.13283394     139.37956404     139.59195522     139.84732070
       140.18395014     140.53994157     140.92512349     141.32209796     133.54854277     133.57634861     133.60024003     133.62148792     133.64097003     133.65906595     133.67624571     133.69290776     133.70967641     133.72656937     133.74290958     133.75931294     133.77612006     133.79383109     133.81270529     133.83320972
       133.85547512     133.87981949     133.90662330     133.93585692     133.96579503     133.99546616     134.02420068     134.05164490     134.07675051     134.09943376     134.10869335     134.12284484     134.12621561     134.13869019     134.14526517     134.19633436     134.14793133     134.18074154     134.29366375     134.42906434
       134.56570829     134.69953516     134.82884587     134.96801053     135.12369641     135.27107899     135.41528080     135.55314180     135.68439491     135.80651060     135.92156149     136.02598175     136.12462065     136.21997593     136.31288755     136.40646209     136.49944572     136.59448905     136.69157780     136.79243096
       136.89867143     137.01211816     137.13679963     137.24128354     137.37339881     137.50865376     137.63067060     137.76459200     137.90442321     138.03175875     138.17556080     138.34724918     138.45894564     138.63811363     138.82951673     139.01978970     139.17861167     139.41849699     139.62935273     139.87222210
       140.15897624     140.47032084     140.79905225     141.14286010     141.49020795     133.54983706     133.57793269     133.60229001     133.62425837     133.64459462     133.66376353     133.68217673     133.70019449     133.71802951     133.73614456     133.75475617     133.77316764     133.79196900     133.81164045     133.83259926
       133.85487393     133.87845785     133.90385804     133.93101996     133.95973540     133.98953532     134.01887513     134.04897141     134.07786768     134.10645725     134.13436238     134.16223862     134.17404269     134.18991845     134.18735338     134.20035382     134.23478395     134.28254179     134.20982167     134.26265062
       134.37184920     134.51677411     134.65323310     134.77958752     134.93612914     135.08425886     135.22521905     135.36331339     135.49428544     135.62055898     135.74142362     135.85440940     135.95837203     136.05730635     136.15446323     136.25006129     136.34622951     136.44382687     136.54374081     136.64490678
       136.75058015     136.86314498     136.98280707     137.11322945     137.22428160     137.36247045     137.51035832     137.63490871     137.77431291     137.90296934     138.03627567     138.19938140     138.38196819     138.49026604     138.66442695     138.86138010     139.04831417     139.21352651     139.44158483     139.64752321
       139.87393206     140.13083869     140.40911639     140.70100855     140.99858282     141.30587046     141.61653023     133.55170441     133.58020010     133.60496387     133.62750873     133.64874106     133.66880897     133.68833936     133.70762126     133.72678019     133.74591342     133.76549614     133.78619390     133.80686984
       133.82843280     133.85099840     133.87449118     133.89934676     133.92568180     133.95337200     133.98227328     134.01225397     134.04269373     134.07283186     134.10387571     134.13397733     134.16356370     134.19232714     134.21653593     134.22232072     134.22500851     134.23089262     134.23094864     134.28864887
       134.34464854     134.24388604     134.31402896     134.44378789     134.59236862     134.73067804     134.89777805     135.04721478     135.18751726     135.31875665     135.44535816     135.56703322     135.68520342     135.79414332     135.89774849     135.99708023     136.09503067     136.19323480     136.29225827     136.39367972
       136.49830373     136.60512124     136.71625086     136.83268915     136.95815463     137.09144704     137.21321153     137.35523472     137.50469788     137.63872599     137.77640977     137.90789832     138.03930858     138.21495524     138.38750535     138.54466321     138.70820618     138.88063959     139.06473548     139.24988316
       139.45022948     139.65368658     139.86678505     140.10105198     140.35328073     140.61868197     140.88870573     141.15634114     141.43150767     141.70366119     133.55404547     133.58296105     133.60788499     133.63105117     133.65317957     133.67402134     133.69456046     133.71496726     133.73528447     133.75563803
       133.77620609     133.79817465     133.82104309     133.84399388     133.86784671     133.89263717     133.91870957     133.94593767     133.97430055     134.00381447     134.03432347     134.06555714     134.09737646     134.12870121     134.16086975     134.19182410     134.22041664     134.24497782     134.25611350     134.23984456
       134.26315402     134.25802164     134.24639116     134.34664393     134.41076882     134.29009589     134.37228994     134.52179439     134.68577251     134.84825993     135.01223600     135.15339782     135.28201347     135.40533980     135.52132262     135.63327670     135.74115016     135.84272439     135.94137868     136.03981946
       136.13991295     136.24238780     136.34807198     136.45708972     136.57001675     136.68664547     136.80806168     136.93820491     137.07301138     137.20472968     137.35052490     137.49968746     137.64041511     137.77748072     137.91387062     138.04689104     138.23516005     138.41258978     138.57308221     138.73735186
       138.91421993     139.08646761     139.26730728     139.45102195     139.65436711     139.85669342     140.07150256     140.30355469     140.54992160     140.80282204     141.05795181     141.33322114     141.68028613     133.55665817     133.58584320     133.61143550     133.63508157     133.65755591     133.67921530     133.70063497
       133.72202726     133.74343901     133.76497309     133.78685420     133.80911762     133.83345532     133.85846988     133.88356276     133.90963710     133.93676465     133.96495283     133.99426441     134.02455407     134.05594891     134.08807824     134.12120623     134.15474152     134.18777319     134.22001923     134.25094010
       134.27725272     134.29424165     134.29498900     134.25843292     134.30134175     134.29535370     134.28292315     134.42125220     134.50637817     134.37737035     134.48521754     134.64231916     134.80986749     134.97537935     135.12393039     135.25198262     135.37090312     135.48121227     135.58755656     135.69179532
       135.78991593     135.88950659     135.98725531     136.08875155     136.19425505     136.30484643     136.41865228     136.53777954     136.66226390     136.78907827     136.92328320     137.06262323     137.20080992     137.34857014     137.49756490     137.63953841     137.78038773     137.92181487     138.07520363     138.25367011
       138.42747709     138.59565362     138.76443337     138.93629615     139.10840365     139.27324706     139.45411849     139.65025231     139.84473560     140.04620953     140.26069980     140.49219950     140.73149417     140.98445324     141.26787219     141.65160799     133.55942679     133.58908870     133.61505765     133.63908696
       133.66189706     133.68416955     133.70639022     133.72871469     133.75113825     133.77379250     133.79676548     133.82031638     133.84461375     133.87162679     133.89827044     133.92547803     133.95365667     133.98293594     134.01332359     134.04467811     134.07715289     134.11061132     134.14505947     134.18021823
       134.21555968     134.24930117     134.28273728     134.31302143     134.33705131     134.35086586     134.35245367     134.34822739     134.46046852     134.34133273     134.43909957     134.60697210     134.78582303     134.94822711     135.09885818     135.22587109     135.33945441     135.44488391     135.54549794     135.64304012
       135.73843567     135.83723299     135.93519385     136.03778920     136.14629257     136.26121104     136.38209095     136.50843043     136.63914229     136.77268327     136.91113209     137.05542894     137.20085407     137.35007315     137.49869407     137.64011613     137.79230599     137.93805934     138.09454323     138.26683164
       138.44816377     138.61679209     138.78484161     138.95617956     139.11931257     139.28153184     139.45650061     139.64417226     139.83279752     140.02423471     140.22456785     140.44336661     140.67381260     140.92373918     141.22181326     141.62668007     133.56246622     133.59259142     133.61870631     133.64287128
       133.66591128     133.68868934     133.71167373     133.73486201     133.75827105     133.78190018     133.80599592     133.83072731     133.85613764     133.88287190     133.91189258     133.94047128     133.96980665     134.00018251     134.03180033     134.06458318     134.09850556     134.13367905     134.16970652     134.20668283
       134.24337073     134.27960109     134.31667798     134.35269808     134.38600239     134.41249560     134.42109154     134.37071034     134.39014422     134.41855333     134.38665905     134.57641414     134.77634275     134.93090317     135.07645617     135.20652039     135.31430800     135.41182253     135.50527256     135.59622846
       135.68775365     135.78080570     135.87867323     135.98242137     136.09472685     136.21669725     136.34602805     136.48075892     136.61765708     136.75858861     136.90250714     137.05099118     137.20577860     137.35612059     137.50471646     137.64753851     137.80321079     137.95546974     138.11181535     138.28402294
       138.46937141     138.63063781     138.80134107     138.96963252     139.12682715     139.28936821     139.46043638     139.64002362     139.82314660     140.00535864     140.19555752     140.40354377     140.62765015     140.87331229     141.17703366     141.60803553     133.56570772     133.59665144     133.62239981     133.64618834
       133.66933423     133.69250851     133.71624028     133.74034256     133.76466940     133.78929777     133.81447890     133.84035741     133.86706311     133.89410666     133.92410345     133.95454770     133.98518185     134.01687599     134.04996379     134.08426937     134.11985141     134.15666354     134.19459444     134.23278756
       134.27054822     134.31107432     134.35258829     134.39679038     134.43737331     134.47777265     134.50932904     134.48752915     134.47701869     134.54293072     134.55297546     134.49499329     134.62955524     134.56472718     134.67829121     134.79485473     134.93654006     135.06481558     135.19162318     135.29152373
       135.38147575     135.46696788     135.55213642     135.63565913     135.72104422     135.81449108     135.91938481     136.03725583     136.16988240     136.31024486     136.45394381     136.60044830     136.74840641     136.89947985     137.05315405     137.21241612     137.36604418     137.51401747     137.66330471     137.81524749
       137.97047965     138.12853279     138.29899353     138.47972484     138.64800967     138.81514083     138.98061476     139.13413312     139.29434004     139.46803009     139.64174519     139.81276293     139.99242026     140.17394235     140.37150434     140.58945470     140.82975985     141.13582352     141.58573949     133.56869441
       133.60271389     133.62590775     133.64846403     133.67149565     133.69536730     133.72002147     133.74496759     133.77019200     133.79588627     133.82218140     133.84923141     133.87701297     133.90541178     133.93530711     133.96750331     133.99971224     134.03298657     134.06758041     134.10358023     134.14105247
       134.17946409     134.21890945     134.25715506     134.29911489     134.34274844     134.39114664     134.43879938     134.48785560     134.54045213     134.59366214     134.65863623     134.72600307     134.75431857     134.76840334     134.79379816     134.84816381     134.95660182     135.06366515     135.17818967     135.26968388
       135.34942045     135.42234129     135.50108378     135.57828165     135.65725684     135.74400574     135.84403688     135.96964065     136.11387138     136.27405859     136.43078258     136.58726735     136.74401164     136.90251008     137.06280566     137.21948365     137.37831248     137.52777271     137.67760602     137.82866891
       137.98427753     138.14426434     138.31185999     138.48528901     138.66169510     138.82572503     138.99046424     139.14510809     139.30104541     139.47685405     139.64139134     139.80866499     139.98031162     140.15941460     140.35171326     140.56272936     140.80115387     141.10922583     141.56679774     133.61656604
       133.62783501     133.64852697     133.67192596     133.69673814     133.72250575     133.74844973     133.77468676     133.80152232     133.82893171     133.85708915     133.88620258     133.91600966     133.94664786     133.97977683     134.01369933     134.04857443     134.08474553     134.12258521     134.16178419     134.20194383
       134.24114812     134.28295511     134.32752151     134.37639272     134.42640562     134.47869911     134.53403681     134.59551390     134.66249078     134.73276458     134.79280973     134.82269520     134.80361714     134.83838377     134.88779053     134.97625598     135.06747097     135.16291792     135.24433498     135.31224663
       135.37831925     135.44294678     135.50704040     135.57111727     135.64790926     135.74491178     135.87978833     136.04779075     136.23524382     136.41312155     136.57955465     136.74413086     136.90812937     137.07182900     137.23248937     137.39318017     137.54183774     137.69151035     137.84057978     138.00027638
       138.16109601     138.32593031     138.49492808     138.67093640     138.84053466     139.00292962     139.15303491     139.30659332     139.47857159     139.64526620     139.81206271     139.97752537     140.15407637     140.34129214     140.53448612     140.78177844     141.09175489     141.55921574     133.61758999     133.64367956
       133.66965540     133.69616265     133.72310227     133.75039850     133.77800034     133.80604333     133.83483968     133.86409928     133.89458903     133.92585070     133.95814313     133.99141787     134.02699266     134.06366731     134.10181623     134.14114224     134.18216568     134.22265066     134.26429399     134.30896962
       134.35708557     134.40755357     134.45923548     134.51477939     134.57400979     134.64287328     134.71088860     134.75956778     134.81262485     134.77258595     134.82964973     134.82554374     134.85609343     134.84336622     134.86699930     134.91305686     134.99130655     135.07032542     135.14800151     135.21911577
       135.28204704     135.33723881     135.38929592     135.44147264     135.47875917     135.52961194     135.55092110     135.46731128     135.46764885     135.59404845     135.64389296     135.49236615     135.55971653     135.75545764     135.98017128     136.19911000     136.39855716     136.57710423     136.74909871     136.91792492
       137.08312361     137.24648705     137.40854188     137.55878747     137.70800629     137.85634235     138.01680091     138.17605325     138.33928789     138.51112909     138.68460907     138.85161985     139.01232250     139.16211616     139.31747057     139.48928038     139.65281929     139.80960874     139.97714977     140.15161975
       140.33846150     140.53041684     140.77629774     141.09089635     141.56178083     133.63547654     133.66465233     133.69338244     133.72210354     133.75093427     133.77998815     133.80950638     133.83958122     133.87042156     133.90208390     133.93499281     133.96880561     134.00370663     134.03977981     134.07801012
       134.11809428     134.15952448     134.20121743     134.24360861     134.28828355     134.33529230     134.38564436     134.43668703     134.49056629     134.54817737     134.61057068     134.67854671     134.74753588     134.78966090     134.83463816     134.79857626     134.83275175     134.85343314     134.87099364     134.85847272
       134.87241259     134.90454167     134.94158140     134.89398821     134.95469911     135.00212897     135.07087199     135.13487398     135.19572709     135.24691077     135.28819197     135.32232422     135.37298471     135.40940239     135.40069840     135.38889094     135.38324559     135.42234986     135.46082042     135.42576007
       135.45633699     135.48643716     135.49828026     135.48190222     135.50433576     135.56891519     135.71874517     135.53509873     135.70669147     135.92826468     136.17853865     136.39287644     136.58073776     136.75876433     136.93146532     137.09801804     137.26296583     137.42394671     137.57657566     137.72683246
       137.87798230     138.03731907     138.19484641     138.35618079     138.52830872     138.69873706     138.86093602     139.02165566     139.18000915     139.34094653     139.50096330     139.66604032     139.82360927     139.98730982     140.15985445     140.33875654     140.51886518     140.76973212     141.07649648     141.59937157
       133.65670247     133.68810211     133.71896920     133.74974908     133.78059252     133.81166730     133.84329687     133.87570546     133.90896544     133.94320730     133.97862726     134.01532290     134.05299903     134.09235266     134.13375728     134.17711156     134.22061909     134.26577942     134.31186979     134.36081290
       134.41173703     134.46492451     134.52074804     134.57988613     134.64301809     134.70895019     134.77678868     134.84018342     134.89762357     134.93087662     134.97332266     134.95006099     134.98483608     134.99770191     135.01933513     135.01666052     135.04241044     135.05842196     135.08066382     135.06504556
       135.07708350     135.11034384     135.13404230     135.09609474     135.12050296     135.16684212     135.18618632     135.15693653     135.17047460     135.20910403     135.22308081     135.18660234     135.19800628     135.23996563     135.24635605     135.21144017     135.21964000     135.24396802     135.24262356     135.24614753
       135.28519864     135.28664150     135.34417408     135.30281407     135.33970369     135.37656377     135.38284643     135.38077646     135.40075409     135.43092669     135.44609030     135.45886365     135.47430564     135.46799752     135.48890490     135.51626501     135.56404780     135.57823713     135.71838906     135.64058068
       135.73984150     135.91741834     136.17924758     136.39907056     136.59604422     136.77670869     136.95181594     137.11407437     137.28335436     137.44411668     137.59674280     137.74833122     137.90278045     138.06236923     138.22106650     138.38124338     138.54821238     138.71846525     138.88349688     139.04164322
       139.20316392     139.36713476     139.51896037     139.68361649     139.84721292     139.99928299     140.16542441     140.34930921     140.53954307     140.78049755     141.14109201     141.60460888     133.67976587     133.71343740     133.74646203     133.77930541     133.81230593     133.84574452     133.87976361     133.91470727
       133.95070321     133.98781029     134.02604396     134.06616518     134.10668887     134.15017834     134.19509696     134.24071378     134.28693266     134.33442720     134.38476877     134.43781988     134.49278086     134.54929669     134.60908618     134.67206383     134.73703548     134.80444542     134.87411545     134.94218339
       135.00491631     135.06190782     135.11283958     135.16441769     135.22354813     135.27251422     135.32058194     135.37850083     135.43574033     135.49946782     135.52129367     135.53370547     135.57677226     135.59700907     135.54711808     135.60103949     135.60521367     135.61538270     135.66709981     135.74414982