# File generated by Flopy version 3.3.5 on 11/03/2021 at 09:22:54.
BEGIN options
  BUDGET  FILEOUT  experimental.cbb
  HEAD  FILEOUT  experimental.hds
  HEAD  PRINT_FORMAT  COLUMNS  10  WIDTH  15  DIGITS  6  general
END options

BEGIN period  1
  SAVE  head  all
  SAVE  budget  all
  PRINT  head  first
  PRINT  head  last
  PRINT  budget  last
END period  1

