# File generated by Flopy version 3.3.5 on 11/03/2021 at 15:11:00.
BEGIN options
END options

BEGIN timing
  TDIS6  experimental.tdis
END timing

BEGIN models
  gwf6  experimental.nam  experimental
END models

BEGIN exchanges
END exchanges

BEGIN solutiongroup  1
  ims6  experimental.ims  experimental
END solutiongroup  1

