# File generated by Flopy version 3.3.5 on 11/11/2021 at 10:31:40.
BEGIN options
  BOUNDNAMES
  PRINT_INPUT
  PRINT_FLOWS
  SAVE_FLOWS
END options

BEGIN dimensions
  MAXBOUND  180
END dimensions

BEGIN period  1
  1 842     142.50000000      86.40000000  red
  1 928     142.50000000      86.40000000  red
  1 1026     142.50000000      86.40000000  red
  1 1118     142.50000000      86.40000000  red
  1 1225     142.50000000      86.40000000  red
  1 1350     142.50000000      86.40000000  red
  1 1487     142.50000000      86.40000000  red
  1 1620     142.50000000      86.40000000  red
  1 1764     142.50000000      86.40000000  red
  1 1895     142.50000000      86.40000000  red
  1 2040     142.50000000      86.40000000  red
  1 2139     142.50000000      86.40000000  red
  1 2222     142.50000000      86.40000000  red
  1 2310     142.50000000      86.40000000  red
  1 2394     142.50000000      86.40000000  red
  1 2480     142.50000000      86.40000000  red
  1 2565     142.50000000      86.40000000  red
  1 2667     142.50000000      86.40000000  red
  1 2822     142.50000000      86.40000000  red
  1 2979     142.50000000      86.40000000  red
  1 3096     142.50000000      86.40000000  red
  1 3209     142.50000000      86.40000000  red
  1 3210     142.50000000      86.40000000  red
  1 3283     142.50000000      86.40000000  red
  1 3352     142.50000000      86.40000000  red
  1 3432     142.50000000      86.40000000  red
  1 440     143.00000000      86.40000000  orangered
  1 516     143.00000000      86.40000000  orangered
  1 596     143.00000000      86.40000000  orangered
  1 677     143.00000000      86.40000000  orangered
  1 759     143.00000000      86.40000000  orangered
  1 315     137.50000000      86.40000000  orange
  1 316     137.50000000      86.40000000  orange
  1 317     137.50000000      86.40000000  orange
  1 318     137.50000000      86.40000000  orange
  1 319     137.50000000      86.40000000  orange
  1 320     137.50000000      86.40000000  orange
  1 321     137.50000000      86.40000000  orange
  1 322     137.50000000      86.40000000  orange
  1 323     137.50000000      86.40000000  orange
  1 324     137.50000000      86.40000000  orange
  1 325     137.50000000      86.40000000  orange
  1 326     137.50000000      86.40000000  orange
  1 327     137.50000000      86.40000000  orange
  1 328     137.50000000      86.40000000  orange
  1 329     137.50000000      86.40000000  orange
  1 330     137.50000000      86.40000000  orange
  1 331     137.50000000      86.40000000  orange
  1 332     137.50000000      86.40000000  orange
  1 333     137.50000000      86.40000000  orange
  1 334     137.50000000      86.40000000  orange
  1 335     137.50000000      86.40000000  orange
  1 336     137.50000000      86.40000000  orange
  1 337     137.50000000      86.40000000  orange
  1 338     137.69389343      86.40000000  orange
  1 339     137.91209412      86.40000000  orange
  1 340     137.98829651      86.40000000  orange
  1 341     137.97909546      86.40000000  orange
  1 342     137.99470520      86.40000000  orange
  1 343     138.17030334      86.40000000  orange
  1 344     138.33149719      86.40000000  orange
  1 345     138.30830383      86.40000000  orange
  1 346     138.45790100      86.40000000  orange
  1 347     138.63549805      86.40000000  orange
  1 348     138.63079834      86.40000000  orange
  1 349     138.47880554      86.40000000  orange
  1 350     138.82800293      86.40000000  orange
  1 51     135.50000000      86.40000000  gold
  1 84     135.50000000      86.40000000  gold
  1 116     135.50000000      86.40000000  gold
  1 150     135.50000000      86.40000000  gold
  1 186     135.50000000      86.40000000  gold
  1 224     135.50000000      86.40000000  gold
  1 264     135.50000000      86.40000000  gold
  1 1     134.50000000      86.40000000  yellowgreen
  1 2     134.50000000      86.40000000  yellowgreen
  1 3     134.50000000      86.40000000  yellowgreen
  1 4     134.50000000      86.40000000  yellowgreen
  1 5     134.50000000      86.40000000  yellowgreen
  1 6     134.50000000      86.40000000  yellowgreen
  1 9     134.50000000      86.40000000  yellowgreen
  1 10     134.50000000      86.40000000  yellowgreen
  1 11     134.50000000      86.40000000  yellowgreen
  1 12     134.50000000      86.40000000  yellowgreen
  1 13     134.50000000      86.40000000  yellowgreen
  1 14     134.50000000      86.40000000  yellowgreen
  1 15     134.50000000      86.40000000  yellowgreen
  1 16     134.50000000      86.40000000  yellowgreen
  1 17     134.50000000      86.40000000  yellowgreen
  1 18     134.50000000      86.40000000  yellowgreen
  1 19     134.50000000      86.40000000  yellowgreen
  1 20     134.50000000      86.40000000  yellowgreen
  1 21     134.50000000      86.40000000  yellowgreen
  1 22     134.50000000      86.40000000  yellowgreen
  1 23     134.50000000      86.40000000  yellowgreen
  1 52     133.60000000      86.40000000  limegreen
  1 85     133.60000000      86.40000000  limegreen
  1 117     133.60000000      86.40000000  limegreen
  1 151     133.60000000      86.40000000  limegreen
  1 187     133.60000000      86.40000000  limegreen
  1 265     133.20000000      86.40000000  aqua
  1 351     133.20000000      86.40000000  aqua
  1 441     133.20000000      86.40000000  aqua
  1 517     133.20000000      86.40000000  aqua
  1 597     133.20000000      86.40000000  aqua
  1 678     133.20000000      86.40000000  aqua
  1 760     133.20000000      86.40000000  aqua
  1 843     133.20000000      86.40000000  aqua
  1 929     133.20000000      86.40000000  aqua
  1 1027     133.20000000      86.40000000  aqua
  1 1119     133.20000000      86.40000000  aqua
  1 1226     133.20000000      86.40000000  aqua
  1 1351     133.20000000      86.40000000  aqua
  1 1621     133.20000000      86.40000000  darkturquoise
  1 1765     133.20000000      86.40000000  darkturquoise
  1 1896     133.20000000      86.40000000  darkturquoise
  1 2041     133.20000000      86.40000000  darkturquoise
  1 2140     133.20000000      86.40000000  darkturquoise
  1 2223     133.20000000      86.40000000  darkturquoise
  1 2311     133.20000000      86.40000000  darkturquoise
  1 2395     133.20000000      86.40000000  darkturquoise
  1 2481     133.20000000      86.40000000  darkturquoise
  1 2566     133.20000000      86.40000000  darkturquoise
  1 2668     133.20000000      86.40000000  darkturquoise
  1 2823     133.20000000      86.40000000  darkturquoise
  1 2980     133.20000000      86.40000000  darkturquoise
  1 3097     133.20000000      86.40000000  darkturquoise
  1 3211     133.20000000      86.40000000  darkturquoise
  1 3284     133.20000000      86.40000000  darkturquoise
  1 3353     133.20000000      86.40000000  darkturquoise
  1 3433     133.20000000      86.40000000  darkturquoise
  1 3504     133.20000000      86.40000000  darkturquoise
  1 3569     133.20000000      86.40000000  darkturquoise
  1 3619     133.20000000      86.40000000  darkturquoise
  1 3666     133.20000000      86.40000000  darkturquoise
  1 3709     133.46200562      86.40000000  darkturquoise
  1 3745     134.63389587      86.40000000  darkturquoise
  1 3774     136.71189880      86.40000000  royalblue
  1 3775     137.49569702      86.40000000  royalblue
  1 3776     138.31350708      86.40000000  royalblue
  1 3777     139.24940491      86.40000000  royalblue
  1 3778     139.83569336      86.40000000  royalblue
  1 3779     140.72810364      86.40000000  royalblue
  1 3780     141.18879700      86.40000000  royalblue
  1 3781     141.60980225      86.40000000  royalblue
  1 3782     141.91090393      86.40000000  royalblue
  1 3783     142.14219666      86.40000000  royalblue
  1 3760     141.27040100      86.40000000  blue
  1 3773     142.11360168      86.40000000  blue
  1 3726     140.13279724      86.40000000  blueviolet
  1 3727     139.93290710      86.40000000  blueviolet
  1 3728     139.60429382      86.40000000  blueviolet
  1 3729     139.41859436      86.40000000  blueviolet
  1 3730     139.43840027      86.40000000  blueviolet
  1 3731     139.93969727      86.40000000  blueviolet
  1 3732     139.78880310      86.40000000  blueviolet
  1 3733     139.73010254      86.40000000  blueviolet
  1 3734     139.74319458      86.40000000  blueviolet
  1 3735     139.69749451      86.40000000  blueviolet
  1 3736     139.81100464      86.40000000  blueviolet
  1 3737     139.84320068      86.40000000  blueviolet
  1 3738     139.72039795      86.40000000  blueviolet
  1 3739     139.80270386      86.40000000  blueviolet
  1 3740     139.72770691      86.40000000  blueviolet
  1 3741     139.95869446      86.40000000  blueviolet
  1 3742     140.35270691      86.40000000  blueviolet
  1 3743     140.72639465      86.40000000  blueviolet
  1 3744     140.82269287      86.40000000  blueviolet
  1 3703     141.22219849      86.40000000  purple
  1 3704     142.10499573      86.40000000  purple
  1 3705     142.76049805      86.40000000  purple
  1 3706     143.35789490      86.40000000  purple
  1 3707     143.70970154      86.40000000  purple
  1 3708     144.09910583      86.40000000  purple
  1 3663     143.39370728      86.40000000  mediumvioletred
  1 3664     143.64880371      86.40000000  mediumvioletred
  1 3665     143.81910706      86.40000000  mediumvioletred
  1 3503     140.38569641      86.40000000  crimson
  1 3568     141.42759705      86.40000000  crimson
  1 3618     142.58470154      86.40000000  crimson
END period  1

