# File generated by Flopy version 3.3.5 on 11/11/2021 at 10:35:32.
BEGIN griddata
  strt
    CONSTANT     138.00000000
END griddata

