# File generated by Flopy version 3.3.5 on 11/11/2021 at 10:35:33.
BEGIN options
  DIGITS  10
  PRINT_INPUT
END options

BEGIN continuous  FILEOUT  head.obs.csv
  b9-2  head  1 351  1 352
  b10-2  head  1 1254  1 1255
  b12-1  head  1 1387  1 1388
  b16-1  head  1 1981  1 1982
  b2-1  head  1 1752  1 1753
  b22-1  head  1 1473  1 1474
  b27  head  1 1388  1 1389
  b29  head  1 1557  1 1558
  kb1-1  head  1 2347  1 2348
  kb4-3  head  1 1279  1 1280
  ni1301-1  head  1 1475  1 1476
  ni1302-1  head  1 1474  1 1475
  ni1403-1  head  1 2356  1 2357
  ni1405-1  head  1 2196  1 2197
  ni1407-1  head  1 1471  1 1472
  ni1408-1  head  1 1384  1 1385
  ni1409-1  head  1 1678  1 1679
  ni1410-1  head  1 1680  1 1681
  ni1411-1  head  1 1569  1 1570
  ni1412-1  head  1 2355  1 2356
  ni1413-1  head  1 2450  1 2451
  ni1501-1  head  1 1297  1 1298
  ni1502-2  head  1 1147  1 1148
  ni1503-2  head  1 1231  1 1232
  ni1504-2  head  1 1310  1 1311
  ni1505-1  head  1 1308  1 1309
  ni1506-1  head  1 1387  1 1388
  ni15-o1  head  1 2437  1 2438
  ni15-o44  head  1 2251  1 2252
  ni15-o46  head  1 1546  1 1547
  ni15-o47  head  1 1639  1 1640
  ni15-o48  head  1 947  1 948
  ni1601-1  head  1 2255  1 2256
  ni1602-1  head  1 2108  1 2109
  ni1603-1  head  1 2040  1 2041
  ni1605-1  head  1 2357  1 2358
  ni1606-1  head  1 1887  1 1888
  ni1607-1  head  1 2437  1 2438
  ni1608-1  head  1 2516  1 2517
  ni1609-2  head  1 2520  1 2521
  ni1610-2  head  1 2518  1 2519
  ni1611-1  head  1 2521  1 2522
  ni1612-1  head  1 2340  1 2341
  ni1613-1  head  1 2040  1 2041
  ni1703-1  head  1 2439  1 2440
  ni1704-1  head  1 1033  1 1034
  ni1705-1  head  1 1198  1 1199
  ni1712-1  head  1 2523  1 2524
  ni1801-1  head  1 1113  1 1114
  ni1802-1  head  1 1113  1 1114
  ni1803-1  head  1 1197  1 1198
  ni1804-1  head  1 1277  1 1278
  b9-4  head  2 351  2 352
  b10-4  head  2 1254  2 1255
  b13-1  head  2 1475  2 1476
  b14-1  head  2 1682  2 1683
  b15-1  head  2 1391  2 1392
  b20-1  head  2 1308  2 1309
  b21-1  head  2 1474  2 1475
  b2-2  head  2 1752  2 1753
  b22-2  head  2 1473  2 1474
  b26  head  2 1476  2 1477
  b35  head  2 2260  2 2261
  b36  head  2 2353  2 2354
  b37  head  2 2355  2 2356
  b8-1  head  2 2013  2 2014
  kb4-4  head  2 1279  2 1280
  ni1301-2  head  2 1475  2 1476
  ni1302-2  head  2 1474  2 1475
  ni1401-1  head  2 1568  2 1569
  ni1402-1  head  2 1387  2 1388
  ni1404-1  head  2 1475  2 1476
  ni1407-2  head  2 1471  2 1472
  ni1408-2  head  2 1384  2 1385
  ni1409-2  head  2 1678  2 1679
  ni1410-2  head  2 1680  2 1681
  ni1411-2  head  2 1569  2 1570
  ni1413-2  head  2 2450  2 2451
  ni1501-2  head  2 1297  2 1298
  ni1505-2  head  2 1308  2 1309
  ni1506-2  head  2 1387  2 1388
  ni1507-2  head  2 1226  2 1227
  ni1601-2  head  2 2255  2 2256
  ni1604-1  head  2 2354  2 2355
  ni1606-2  head  2 1887  2 1888
  ni1607-2  head  2 2437  2 2438
  ni1608-2  head  2 2516  2 2517
  ni1703-2  head  2 2439  2 2440
  ni1706-1  head  2 1439  2 1440
  ni1709-1  head  2 2266  2 2267
  ni1801-3  head  2 1113  2 1114
  ni1803-3  head  2 1197  2 1198
  ni1804-3  head  2 1277  2 1278
  b9-5  head  3 351  3 352
  b10-5  head  3 1254  3 1255
  b16-2  head  3 1981  3 1982
  b19-4  head  3 2357  3 2358
  b21-3  head  3 1474  3 1475
  b22-4  head  3 1473  3 1474
  b2-3  head  3 1752  3 1753
  b30  head  3 1296  3 1297
  b34  head  3 2259  3 2260
  b4  head  3 994  3 995
  b8-2  head  3 2013  3 2014
  ni1301-3  head  3 1475  3 1476
  ni1302-3  head  3 1474  3 1475
  ni1401-2  head  3 1568  3 1569
  ni1402-2  head  3 1387  3 1388
  ni1403-2  head  3 2356  3 2357
  ni1404-2  head  3 1475  3 1476
  ni1405-2  head  3 2196  3 2197
  ni1406-1  head  3 1474  3 1475
  ni1407-3  head  3 1471  3 1472
  ni1408-3  head  3 1384  3 1385
  ni1409-3  head  3 1678  3 1679
  ni1410-3  head  3 1680  3 1681
  ni1411-3  head  3 1569  3 1570
  ni1412-3  head  3 2355  3 2356
  ni1413-3  head  3 2450  3 2451
  ni1501-3  head  3 1297  3 1298
  ni1502-3  head  3 1147  3 1148
  ni1503-3  head  3 1231  3 1232
  ni1504-3  head  3 1310  3 1311
  ni1505-3  head  3 1308  3 1309
  ni1506-3  head  3 1387  3 1388
  ni1507-3  head  3 1226  3 1227
  ni1601-3  head  3 2255  3 2256
  ni1602-2  head  3 2108  3 2109
  ni1603-2  head  3 2040  3 2041
  ni1604-3  head  3 2354  3 2355
  ni1605-3  head  3 2357  3 2358
  ni1606-3  head  3 1887  3 1888
  ni1607-3  head  3 2437  3 2438
  ni1608-3  head  3 2516  3 2517
  ni1609-3  head  3 2520  3 2521
  ni1612-2  head  3 2340  3 2341
  ni1701-1  head  3 2252  3 2253
  ni1702-1  head  3 2184  3 2185
  ni1704-2  head  3 1033  3 1034
  ni1705-2  head  3 1198  3 1199
  ni1706-2  head  3 1439  3 1440
  ni1707-1  head  3 1356  3 1357
  ni1708-1  head  3 2448  3 2449
  ni1711-1  head  3 2530  3 2531
END continuous  FILEOUT  head.obs.csv

