# File generated by Flopy version 3.3.5 on 11/11/2021 at 10:31:39.
BEGIN options
  SAVE_FLOWS
  NEWTON  UNDER_RELAXATION
END options

BEGIN packages
  obs6  .\experimental.obs  gwf_obs
  sfr6  .\experimental.sfr  sfr
  rch6  .\experimental.rch  rch
  ghb6  .\experimental.ghb  ghb
  sto6  .\experimental.sto  sto
  oc6  .\experimental.oc  oc
  npf6  .\experimental.npf  npf
  ic6  .\experimental.ic  ic
  disv6  .\experimental.disv  disv
END packages

