# File generated by Flopy version 3.3.5 on 11/11/2021 at 10:35:32.
BEGIN options
  PRINT_OPTION  summary
  COMPLEXITY  simple
END options

BEGIN nonlinear
  OUTER_DVCLOSE       0.01000000
  OUTER_MAXIMUM  750
END nonlinear

BEGIN linear
  INNER_MAXIMUM  50
  LINEAR_ACCELERATION  bicgstab
END linear

