# File generated by Flopy version 3.3.5 on 11/11/2021 at 10:31:39.
BEGIN options
  DIGITS  10
  PRINT_INPUT
END options

BEGIN continuous  FILEOUT  head.obs.csv
  b9-2  head  1 357  1 358
  b10-2  head  1 1369  1 1370
  b12-1  head  1 1585  1 1586
  b16-1  head  1 2368  1 2369
  b2-1  head  1 2103  1 2104
  b22-1  head  1 1719  1 1720
  b27  head  1 1595  1 1596
  b29  head  1 1850  1 1851
  kb1-1  head  1 2875  1 2876
  kb4-3  head  1 1408  1 1409
  ni1301-1  head  1 1741  1 1742
  ni1302-1  head  1 1726  1 1727
  ni1403-1  head  1 2918  1 2919
  ni1405-1  head  1 2645  1 2646
  ni1407-1  head  1 1710  1 1711
  ni1408-1  head  1 1567  1 1568
  ni1409-1  head  1 2002  1 2003
  ni1410-1  head  1 2013  1 2014
  ni1411-1  head  1 1879  1 1880
  ni1412-1  head  1 2908  1 2909
  ni1413-1  head  1 3047  1 3048
  ni1501-1  head  1 1444  1 1445
  ni1502-2  head  1 1212  1 1213
  ni1503-2  head  1 1336  1 1337
  ni1504-2  head  1 1470  1 1471
  ni1505-1  head  1 1462  1 1463
  ni1506-1  head  1 1582  1 1583
  ni15-o1  head  1 3013  1 3014
  ni15-o44  head  1 2707  1 2708
  ni15-o46  head  1 1833  1 1834
  ni15-o47  head  1 1957  1 1958
  ni15-o48  head  1 963  1 964
  ni1601-1  head  1 2729  1 2730
  ni1602-1  head  1 2522  1 2523
  ni1603-1  head  1 2442  1 2443
  ni1605-1  head  1 2922  1 2923
  ni1606-1  head  1 2262  1 2263
  ni1607-1  head  1 3016  1 3017
  ni1608-1  head  1 3129  1 3130
  ni1609-2  head  1 3138  1 3139
  ni1610-2  head  1 3136  1 3137
  ni1611-1  head  1 3145  1 3146
  ni1612-1  head  1 2856  1 2857
  ni1613-1  head  1 2444  1 2445
  ni1703-1  head  1 3019  1 3020
  ni1704-1  head  1 1068  1 1069
  ni1705-1  head  1 1279  1 1280
  ni1712-1  head  1 3156  1 3157
  ni1801-1  head  1 1158  1 1159
  ni1802-1  head  1 1164  1 1165
  ni1803-1  head  1 1274  1 1275
  ni1804-1  head  1 1398  1 1399
  b9-4  head  2 357  2 358
  b10-4  head  2 1369  2 1370
  b13-1  head  2 1744  2 1745
  b14-1  head  2 2023  2 2024
  b15-1  head  2 1610  2 1611
  b20-1  head  2 1464  2 1465
  b21-1  head  2 1728  2 1729
  b2-2  head  2 2103  2 2104
  b22-2  head  2 1719  2 1720
  b26  head  2 1746  2 1747
  b35  head  2 2749  2 2750
  b36  head  2 2894  2 2895
  b37  head  2 2909  2 2910
  b8-1  head  2 2408  2 2409
  kb4-4  head  2 1408  2 1409
  ni1301-2  head  2 1741  2 1742
  ni1302-2  head  2 1726  2 1727
  ni1401-1  head  2 1870  2 1871
  ni1402-1  head  2 1590  2 1591
  ni1404-1  head  2 1736  2 1737
  ni1407-2  head  2 1710  2 1711
  ni1408-2  head  2 1567  2 1568
  ni1409-2  head  2 2002  2 2003
  ni1410-2  head  2 2013  2 2014
  ni1411-2  head  2 1879  2 1880
  ni1413-2  head  2 3047  2 3048
  ni1501-2  head  2 1444  2 1445
  ni1505-2  head  2 1462  2 1463
  ni1506-2  head  2 1582  2 1583
  ni1507-2  head  2 1322  2 1323
  ni1601-2  head  2 2729  2 2730
  ni1604-1  head  2 2903  2 2904
  ni1606-2  head  2 2262  2 2263
  ni1607-2  head  2 3016  2 3017
  ni1608-2  head  2 3129  2 3130
  ni1703-2  head  2 3019  2 3020
  ni1706-1  head  2 1668  2 1669
  ni1709-1  head  2 2773  2 2774
  ni1801-3  head  2 1158  2 1159
  ni1803-3  head  2 1274  2 1275
  ni1804-3  head  2 1398  2 1399
  b9-5  head  3 357  3 358
  b10-5  head  3 1369  3 1370
  b16-2  head  3 2368  3 2369
  b19-4  head  3 2926  3 2927
  b21-3  head  3 1728  3 1729
  b22-4  head  3 1719  3 1720
  b2-3  head  3 2103  3 2104
  b30  head  3 1437  3 1438
  b34  head  3 2740  3 2741
  b4  head  3 1021  3 1022
  b8-2  head  3 2408  3 2409
  ni1301-3  head  3 1741  3 1742
  ni1302-3  head  3 1726  3 1727
  ni1401-2  head  3 1870  3 1871
  ni1402-2  head  3 1590  3 1591
  ni1403-2  head  3 2918  3 2919
  ni1404-2  head  3 1736  3 1737
  ni1405-2  head  3 2645  3 2646
  ni1406-1  head  3 1723  3 1724
  ni1407-3  head  3 1710  3 1711
  ni1408-3  head  3 1567  3 1568
  ni1409-3  head  3 2002  3 2003
  ni1410-3  head  3 2013  3 2014
  ni1411-3  head  3 1879  3 1880
  ni1412-3  head  3 2908  3 2909
  ni1413-3  head  3 3047  3 3048
  ni1501-3  head  3 1444  3 1445
  ni1502-3  head  3 1212  3 1213
  ni1503-3  head  3 1336  3 1337
  ni1504-3  head  3 1470  3 1471
  ni1505-3  head  3 1462  3 1463
  ni1506-3  head  3 1582  3 1583
  ni1507-3  head  3 1322  3 1323
  ni1601-3  head  3 2729  3 2730
  ni1602-2  head  3 2522  3 2523
  ni1603-2  head  3 2442  3 2443
  ni1604-3  head  3 2903  3 2904
  ni1605-3  head  3 2922  3 2923
  ni1606-3  head  3 2262  3 2263
  ni1607-3  head  3 3016  3 3017
  ni1608-3  head  3 3129  3 3130
  ni1609-3  head  3 3138  3 3139
  ni1612-2  head  3 2856  3 2857
  ni1701-1  head  3 2714  3 2715
  ni1702-1  head  3 2611  3 2612
  ni1704-2  head  3 1068  3 1069
  ni1705-2  head  3 1279  3 1280
  ni1706-2  head  3 1668  3 1669
  ni1707-1  head  3 1526  3 1527
  ni1708-1  head  3 3038  3 3039
  ni1711-1  head  3 3168  3 3169
END continuous  FILEOUT  head.obs.csv

