# File generated by Flopy version 3.3.5 on 01/14/2022 at 16:04:30.
BEGIN options
  SAVE_FLOWS
  NEWTON  UNDER_RELAXATION
END options

BEGIN packages
  RCH6  hagfors_1.rch  rch
  disv6  hagfors_1.disv  disv
  ic6  hagfors_1.ic  ic
  npf6  hagfors_1.npf  npf
  oc6  hagfors_1.oc  oc
  sto6  hagfors_1.sto  sto
  sfr6  hagfors_1.sfr  sfr
  obs6  hagfors_1.obs  gwf_obs
  GHB6  hagfors_1.ghb  ghb
END packages

