# File generated by Flopy version 3.3.5 on 01/14/2022 at 16:04:30.
BEGIN options
  BUDGET  FILEOUT  hagfors_1.cbb
  HEAD  FILEOUT  hagfors_1.hds
  HEAD  PRINT_FORMAT  COLUMNS  10  WIDTH  15  DIGITS  6  general
END options

BEGIN period  1
  SAVE  head  all
  SAVE  budget  all
  PRINT  head  first
  PRINT  head  last
  PRINT  budget  last
END period  1

