# File generated by Flopy version 3.3.5 on 01/14/2022 at 16:04:30.
BEGIN options
  SAVE_FLOWS
END options

BEGIN griddata
  icelltype
    CONSTANT  1
  k
    CONSTANT      86.40000000
  k33
    CONSTANT       8.64000000
END griddata

